/*---------------------------------------------------------------------------*\
| =========                 |                                                 |
| \\      /  F ield         | OpenFOAM: The Open Source CFD Toolbox           |
|  \\    /   O peration     | Version:  2312                                  |
|   \\  /    A nd           | Website:  www.openfoam.com                      |
|    \\/     M anipulation  |                                                 |
\*---------------------------------------------------------------------------*/
Build  : _e651d635-20240208 OPENFOAM=2312 patch=240220 version=2312
Arch   : "LSB;label=32;scalar=64"
Exec   : rhoSimpleFoam
Date   : Sep 24 2024
Time   : 10:58:22
Host   : DESKTOP-BSV00FF
PID    : 3504
I/O    : uncollated
Case   : /mnt/e/openfoam/tutorials/angledDuctExplicitFixedCoeff
nProcs : 1
trapFpe: Floating point exception trapping enabled (FOAM_SIGFPE).
fileModificationChecking : Monitoring run-time modified files using timeStampMaster (fileModificationSkew 5, maxFileModificationPolls 20)
allowSystemOperations : Allowing user-supplied system call operations

// * * * * * * * * * * * * * * * * * * * * * * * * * * * * * * * * * * * * * //
Create time

Create mesh for time = 0


SIMPLE: convergence criteria
    field p	 tolerance 0.01
    field U	 tolerance 0.0001
    field e	 tolerance 0.001
    field "(k|epsilon)"	 tolerance 0.001

Reading thermophysical properties

Selecting thermodynamics package 
{
    type            heRhoThermo;
    mixture         pureMixture;
    transport       sutherland;
    thermo          hConst;
    equationOfState perfectGas;
    specie          specie;
    energy          sensibleInternalEnergy;
}

Reading field U

Reading/calculating face flux field phi

pressureControl
    pMax 150000
    pMin 40000

Creating turbulence model

Selecting turbulence model type RAS
Selecting RAS turbulence model kEpsilon
RAS
{
    RASModel        kEpsilon;
    turbulence      on;
    printCoeffs     on;
    Cmu             0.09;
    C1              1.44;
    C2              1.92;
    C3              0;
    sigmak          1;
    sigmaEps        1.3;
}

No MRF models present

Creating finite volume options from "constant/fvOptions"

Selecting finite volume options type explicitPorositySource
    Source: porosity
    - selecting cells using cellZones (porosity)
    - selected 8000 cell(s) with volume 0.00025
Porosity region porosity:
    selecting model: fixedCoeff
    creating porous zone: porosity
    origin: (0 0 0) e1: (0.707107 0.707107 0) e2: (0 0 1)
    local bounds: (0.1 0.05 0.05)

Selecting finite volume options type fixedTemperatureConstraint
    Source: fixedTemperature
    - selecting cells using cellZones (porosity)
    - selected 8000 cell(s) with volume 0.00025
Selecting finite volume options type scalarFixedValueConstraint
    Source: porosityTurbulence
    - selecting cells using cellZones (porosity)
    - selected 8000 cell(s) with volume 0.00025

Starting time loop

Time = 1

smoothSolver:  Solving for Ux, Initial residual = 1, Final residual = 0.0494845, No Iterations 4
smoothSolver:  Solving for Uy, Initial residual = 1, Final residual = 0.0351069, No Iterations 4
smoothSolver:  Solving for Uz, Initial residual = 1, Final residual = 0.0399406, No Iterations 4
smoothSolver:  Solving for e, Initial residual = 0.00145966, Final residual = 0.000141269, No Iterations 1
GAMG:  Solving for p, Initial residual = 1, Final residual = 0.0410853, No Iterations 6
time step continuity errors : sum local = 5.36946, global = -1.60769, cumulative = -1.60769
pressureControl: p max 1.47451e+06
smoothSolver:  Solving for epsilon, Initial residual = 0.0863876, Final residual = 0.000203702, No Iterations 2
smoothSolver:  Solving for k, Initial residual = 1, Final residual = 0.00394659, No Iterations 2
ExecutionTime = 0.35 s  ClockTime = 1 s

Time = 2

smoothSolver:  Solving for Ux, Initial residual = 0.0696068, Final residual = 0.000166971, No Iterations 2
smoothSolver:  Solving for Uy, Initial residual = 0.114176, Final residual = 2.11254e-05, No Iterations 2
smoothSolver:  Solving for Uz, Initial residual = 0.50036, Final residual = 0.00490173, No Iterations 2
smoothSolver:  Solving for e, Initial residual = 0.0111029, Final residual = 0.000283562, No Iterations 1
GAMG:  Solving for p, Initial residual = 0.0311001, Final residual = 0.000464979, No Iterations 6
time step continuity errors : sum local = 4.45311, global = -1.06143, cumulative = -2.66911
pressureControl: p max 1.14588e+06
smoothSolver:  Solving for epsilon, Initial residual = 0.0661664, Final residual = 0.00118284, No Iterations 2
smoothSolver:  Solving for k, Initial residual = 0.184338, Final residual = 0.00476191, No Iterations 2
ExecutionTime = 0.42 s  ClockTime = 1 s

Time = 3

smoothSolver:  Solving for Ux, Initial residual = 0.0304549, Final residual = 6.20683e-05, No Iterations 2
smoothSolver:  Solving for Uy, Initial residual = 0.0532346, Final residual = 2.99769e-05, No Iterations 2
smoothSolver:  Solving for Uz, Initial residual = 0.210676, Final residual = 0.000900149, No Iterations 2
smoothSolver:  Solving for e, Initial residual = 0.0127807, Final residual = 0.000233884, No Iterations 1
GAMG:  Solving for p, Initial residual = 0.0362537, Final residual = 0.000713893, No Iterations 4
time step continuity errors : sum local = 7.06832, global = 1.18346, cumulative = -1.48565
pressureControl: p max 829782
smoothSolver:  Solving for epsilon, Initial residual = 0.026959, Final residual = 0.000638928, No Iterations 2
smoothSolver:  Solving for k, Initial residual = 0.115855, Final residual = 0.00336369, No Iterations 2
ExecutionTime = 0.5 s  ClockTime = 2 s

Time = 4

smoothSolver:  Solving for Ux, Initial residual = 0.0151266, Final residual = 2.23442e-05, No Iterations 2
smoothSolver:  Solving for Uy, Initial residual = 0.0907888, Final residual = 5.04022e-05, No Iterations 2
smoothSolver:  Solving for Uz, Initial residual = 0.193505, Final residual = 0.00148008, No Iterations 2
smoothSolver:  Solving for e, Initial residual = 0.0119182, Final residual = 0.000234006, No Iterations 1
GAMG:  Solving for p, Initial residual = 0.0401171, Final residual = 0.00184787, No Iterations 4
time step continuity errors : sum local = 18.0017, global = 10.0814, cumulative = 8.59579
pressureControl: p max 588014
smoothSolver:  Solving for epsilon, Initial residual = 0.0180324, Final residual = 0.000355341, No Iterations 2
smoothSolver:  Solving for k, Initial residual = 0.0916228, Final residual = 0.00231972, No Iterations 2
ExecutionTime = 0.58 s  ClockTime = 2 s

Time = 5

smoothSolver:  Solving for Ux, Initial residual = 0.0125748, Final residual = 1.14551e-05, No Iterations 2
smoothSolver:  Solving for Uy, Initial residual = 0.086468, Final residual = 2.80244e-05, No Iterations 2
smoothSolver:  Solving for Uz, Initial residual = 0.0532742, Final residual = 0.000397007, No Iterations 2
smoothSolver:  Solving for e, Initial residual = 0.0107084, Final residual = 0.000238878, No Iterations 1
GAMG:  Solving for p, Initial residual = 0.0413257, Final residual = 0.00107571, No Iterations 4
time step continuity errors : sum local = 9.66364, global = 5.14971, cumulative = 13.7455
pressureControl: p max 459855
smoothSolver:  Solving for epsilon, Initial residual = 0.0120506, Final residual = 0.000225327, No Iterations 2
smoothSolver:  Solving for k, Initial residual = 0.0694296, Final residual = 0.00174386, No Iterations 2
ExecutionTime = 0.66 s  ClockTime = 2 s

Time = 6

smoothSolver:  Solving for Ux, Initial residual = 0.0153731, Final residual = 1.17772e-05, No Iterations 2
smoothSolver:  Solving for Uy, Initial residual = 0.0389838, Final residual = 1.64466e-05, No Iterations 2
smoothSolver:  Solving for Uz, Initial residual = 0.0225356, Final residual = 0.000211429, No Iterations 2
smoothSolver:  Solving for e, Initial residual = 0.0104071, Final residual = 0.00022363, No Iterations 1
GAMG:  Solving for p, Initial residual = 0.0405187, Final residual = 0.000674407, No Iterations 4
time step continuity errors : sum local = 6.1156, global = -3.26203, cumulative = 10.4835
pressureControl: p max 364713
smoothSolver:  Solving for epsilon, Initial residual = 0.00922827, Final residual = 0.000157077, No Iterations 2
smoothSolver:  Solving for k, Initial residual = 0.0562928, Final residual = 0.00139376, No Iterations 2
ExecutionTime = 0.75 s  ClockTime = 2 s

Time = 7

smoothSolver:  Solving for Ux, Initial residual = 0.0178481, Final residual = 1.10535e-05, No Iterations 2
smoothSolver:  Solving for Uy, Initial residual = 0.0207959, Final residual = 7.43303e-06, No Iterations 2
smoothSolver:  Solving for Uz, Initial residual = 0.0303014, Final residual = 0.000327435, No Iterations 2
smoothSolver:  Solving for e, Initial residual = 0.0100573, Final residual = 0.000210471, No Iterations 1
GAMG:  Solving for p, Initial residual = 0.0345269, Final residual = 0.000679623, No Iterations 4
time step continuity errors : sum local = 6.47517, global = -3.34313, cumulative = 7.14033
pressureControl: p max 287445
smoothSolver:  Solving for epsilon, Initial residual = 0.0072102, Final residual = 0.000116456, No Iterations 2
smoothSolver:  Solving for k, Initial residual = 0.0470832, Final residual = 0.00116346, No Iterations 2
ExecutionTime = 0.85 s  ClockTime = 2 s

Time = 8

smoothSolver:  Solving for Ux, Initial residual = 0.0177977, Final residual = 8.63685e-06, No Iterations 2
smoothSolver:  Solving for Uy, Initial residual = 0.0150022, Final residual = 3.85607e-06, No Iterations 2
smoothSolver:  Solving for Uz, Initial residual = 0.0427847, Final residual = 0.000458219, No Iterations 2
smoothSolver:  Solving for e, Initial residual = 0.0103779, Final residual = 0.000213666, No Iterations 1
GAMG:  Solving for p, Initial residual = 0.0325906, Final residual = 0.000319915, No Iterations 4
time step continuity errors : sum local = 3.05808, global = -1.22712, cumulative = 5.91322
pressureControl: p max 237037
smoothSolver:  Solving for epsilon, Initial residual = 0.0055758, Final residual = 8.92269e-05, No Iterations 2
smoothSolver:  Solving for k, Initial residual = 0.0407452, Final residual = 0.000995034, No Iterations 2
ExecutionTime = 0.95 s  ClockTime = 2 s

Time = 9

smoothSolver:  Solving for Ux, Initial residual = 0.0161375, Final residual = 8.1616e-06, No Iterations 2
smoothSolver:  Solving for Uy, Initial residual = 0.0142774, Final residual = 4.40999e-06, No Iterations 2
smoothSolver:  Solving for Uz, Initial residual = 0.0126679, Final residual = 0.000167087, No Iterations 2
smoothSolver:  Solving for e, Initial residual = 0.0105246, Final residual = 0.000215817, No Iterations 1
GAMG:  Solving for p, Initial residual = 0.0323664, Final residual = 0.000616105, No Iterations 4
time step continuity errors : sum local = 5.72464, global = 2.0065, cumulative = 7.91971
pressureControl: p max 192292
smoothSolver:  Solving for epsilon, Initial residual = 0.0046686, Final residual = 7.09565e-05, No Iterations 2
smoothSolver:  Solving for k, Initial residual = 0.0366915, Final residual = 0.000875901, No Iterations 2
ExecutionTime = 1.05 s  ClockTime = 2 s

Time = 10

smoothSolver:  Solving for Ux, Initial residual = 0.0149844, Final residual = 6.15558e-06, No Iterations 2
smoothSolver:  Solving for Uy, Initial residual = 0.0158567, Final residual = 3.81671e-06, No Iterations 2
smoothSolver:  Solving for Uz, Initial residual = 0.0192265, Final residual = 0.000272455, No Iterations 2
smoothSolver:  Solving for e, Initial residual = 0.0102452, Final residual = 0.00021268, No Iterations 1
GAMG:  Solving for p, Initial residual = 0.0314106, Final residual = 0.00109843, No Iterations 3
time step continuity errors : sum local = 9.43825, global = -1.0078, cumulative = 6.91192
pressureControl: p max 164102
smoothSolver:  Solving for epsilon, Initial residual = 0.00391226, Final residual = 5.75283e-05, No Iterations 2
smoothSolver:  Solving for k, Initial residual = 0.0323353, Final residual = 0.000776347, No Iterations 2
ExecutionTime = 1.14 s  ClockTime = 2 s

Time = 11

smoothSolver:  Solving for Ux, Initial residual = 0.0183933, Final residual = 4.62613e-06, No Iterations 2
smoothSolver:  Solving for Uy, Initial residual = 0.0208416, Final residual = 2.74444e-06, No Iterations 2
smoothSolver:  Solving for Uz, Initial residual = 0.071702, Final residual = 0.00077727, No Iterations 2
smoothSolver:  Solving for e, Initial residual = 0.00978236, Final residual = 0.000204754, No Iterations 1
GAMG:  Solving for p, Initial residual = 0.0317239, Final residual = 0.000343397, No Iterations 3
time step continuity errors : sum local = 2.655, global = -0.0107865, cumulative = 6.90113
pressureControl: p max 151069
smoothSolver:  Solving for epsilon, Initial residual = 0.00334473, Final residual = 4.78773e-05, No Iterations 2
smoothSolver:  Solving for k, Initial residual = 0.0275351, Final residual = 0.000691198, No Iterations 2
ExecutionTime = 1.25 s  ClockTime = 2 s

Time = 12

smoothSolver:  Solving for Ux, Initial residual = 0.0217609, Final residual = 4.67635e-06, No Iterations 2
smoothSolver:  Solving for Uy, Initial residual = 0.0225285, Final residual = 2.67418e-06, No Iterations 2
smoothSolver:  Solving for Uz, Initial residual = 0.0356406, Final residual = 0.000258915, No Iterations 2
smoothSolver:  Solving for e, Initial residual = 0.00957634, Final residual = 0.000197235, No Iterations 1
GAMG:  Solving for p, Initial residual = 0.0327395, Final residual = 0.000459144, No Iterations 3
time step continuity errors : sum local = 3.13983, global = -0.521776, cumulative = 6.37936
smoothSolver:  Solving for epsilon, Initial residual = 0.00287007, Final residual = 4.07309e-05, No Iterations 2
smoothSolver:  Solving for k, Initial residual = 0.0231962, Final residual = 0.000619467, No Iterations 2
ExecutionTime = 1.37 s  ClockTime = 3 s

Time = 13

smoothSolver:  Solving for Ux, Initial residual = 0.0199751, Final residual = 7.65075e-06, No Iterations 2
smoothSolver:  Solving for Uy, Initial residual = 0.0182938, Final residual = 4.24918e-06, No Iterations 2
smoothSolver:  Solving for Uz, Initial residual = 0.0581609, Final residual = 0.000893236, No Iterations 2
smoothSolver:  Solving for e, Initial residual = 0.00957182, Final residual = 0.000193294, No Iterations 1
GAMG:  Solving for p, Initial residual = 0.029905, Final residual = 0.00129786, No Iterations 2
time step continuity errors : sum local = 6.96942, global = 2.05309, cumulative = 8.43245
smoothSolver:  Solving for epsilon, Initial residual = 0.00257358, Final residual = 3.60136e-05, No Iterations 2
smoothSolver:  Solving for k, Initial residual = 0.0204527, Final residual = 0.000566203, No Iterations 2
ExecutionTime = 1.45 s  ClockTime = 3 s

Time = 14

smoothSolver:  Solving for Ux, Initial residual = 0.0138889, Final residual = 8.61681e-06, No Iterations 2
smoothSolver:  Solving for Uy, Initial residual = 0.0121209, Final residual = 3.59091e-06, No Iterations 2
smoothSolver:  Solving for Uz, Initial residual = 0.100394, Final residual = 0.001695, No Iterations 2
smoothSolver:  Solving for e, Initial residual = 0.00956302, Final residual = 0.000188664, No Iterations 1
GAMG:  Solving for p, Initial residual = 0.0359027, Final residual = 0.00125507, No Iterations 3
time step continuity errors : sum local = 4.56109, global = 2.92868, cumulative = 11.3611
smoothSolver:  Solving for epsilon, Initial residual = 0.00237613, Final residual = 3.2837e-05, No Iterations 2
smoothSolver:  Solving for k, Initial residual = 0.018606, Final residual = 0.000520246, No Iterations 2
ExecutionTime = 1.53 s  ClockTime = 3 s

Time = 15

smoothSolver:  Solving for Ux, Initial residual = 0.00782424, Final residual = 6.48308e-06, No Iterations 2
smoothSolver:  Solving for Uy, Initial residual = 0.00707343, Final residual = 3.11142e-06, No Iterations 2
smoothSolver:  Solving for Uz, Initial residual = 0.0566674, Final residual = 0.000478574, No Iterations 2
smoothSolver:  Solving for e, Initial residual = 0.00946651, Final residual = 0.000179728, No Iterations 1
GAMG:  Solving for p, Initial residual = 0.0813381, Final residual = 0.00148582, No Iterations 4
time step continuity errors : sum local = 2.30514, global = 0.605361, cumulative = 11.9665
smoothSolver:  Solving for epsilon, Initial residual = 0.00220106, Final residual = 3.05945e-05, No Iterations 2
smoothSolver:  Solving for k, Initial residual = 0.0165164, Final residual = 0.000477168, No Iterations 2
ExecutionTime = 1.67 s  ClockTime = 3 s

Time = 16

smoothSolver:  Solving for Ux, Initial residual = 0.00766049, Final residual = 3.29444e-06, No Iterations 2
smoothSolver:  Solving for Uy, Initial residual = 0.00745259, Final residual = 1.71461e-06, No Iterations 2
smoothSolver:  Solving for Uz, Initial residual = 0.0615337, Final residual = 0.00054019, No Iterations 2
smoothSolver:  Solving for e, Initial residual = 0.00895202, Final residual = 0.000170392, No Iterations 1
GAMG:  Solving for p, Initial residual = 0.103302, Final residual = 0.00411933, No Iterations 3
time step continuity errors : sum local = 4.69202, global = -1.98676, cumulative = 9.97973
smoothSolver:  Solving for epsilon, Initial residual = 0.00193649, Final residual = 2.79164e-05, No Iterations 2
smoothSolver:  Solving for k, Initial residual = 0.0138695, Final residual = 0.000424884, No Iterations 2
ExecutionTime = 1.81 s  ClockTime = 3 s

Time = 17

smoothSolver:  Solving for Ux, Initial residual = 0.0084606, Final residual = 1.38345e-06, No Iterations 2
smoothSolver:  Solving for Uy, Initial residual = 0.00848796, Final residual = 2.46938e-06, No Iterations 2
smoothSolver:  Solving for Uz, Initial residual = 0.172384, Final residual = 0.0023343, No Iterations 2
smoothSolver:  Solving for e, Initial residual = 0.00850953, Final residual = 0.000160823, No Iterations 1
GAMG:  Solving for p, Initial residual = 0.0582713, Final residual = 0.00285202, No Iterations 2
time step continuity errors : sum local = 5.26014, global = -1.2177, cumulative = 8.76203
smoothSolver:  Solving for epsilon, Initial residual = 0.00159562, Final residual = 2.47224e-05, No Iterations 2
smoothSolver:  Solving for k, Initial residual = 0.0107574, Final residual = 0.000366862, No Iterations 2
ExecutionTime = 1.95 s  ClockTime = 3 s

Time = 18

smoothSolver:  Solving for Ux, Initial residual = 0.00823869, Final residual = 2.89681e-06, No Iterations 2
smoothSolver:  Solving for Uy, Initial residual = 0.00819089, Final residual = 2.4619e-06, No Iterations 2
smoothSolver:  Solving for Uz, Initial residual = 0.0938391, Final residual = 0.00104881, No Iterations 2
smoothSolver:  Solving for e, Initial residual = 0.00817945, Final residual = 0.000149587, No Iterations 1
GAMG:  Solving for p, Initial residual = 0.0607445, Final residual = 0.00266262, No Iterations 2
time step continuity errors : sum local = 4.2365, global = 1.5856, cumulative = 10.3476
smoothSolver:  Solving for epsilon, Initial residual = 0.00129964, Final residual = 2.07259e-05, No Iterations 2
smoothSolver:  Solving for k, Initial residual = 0.00815182, Final residual = 0.00031004, No Iterations 2
ExecutionTime = 2.08 s  ClockTime = 3 s

Time = 19

smoothSolver:  Solving for Ux, Initial residual = 0.00615306, Final residual = 3.06108e-06, No Iterations 2
smoothSolver:  Solving for Uy, Initial residual = 0.00597351, Final residual = 1.55625e-06, No Iterations 2
smoothSolver:  Solving for Uz, Initial residual = 0.110006, Final residual = 0.00115798, No Iterations 2
smoothSolver:  Solving for e, Initial residual = 0.00780456, Final residual = 0.000136685, No Iterations 1
GAMG:  Solving for p, Initial residual = 0.1807, Final residual = 0.00396032, No Iterations 3
time step continuity errors : sum local = 1.69894, global = -1.24251, cumulative = 9.10512
smoothSolver:  Solving for epsilon, Initial residual = 0.00105813, Final residual = 1.74237e-05, No Iterations 2
smoothSolver:  Solving for k, Initial residual = 0.00645956, Final residual = 0.000266742, No Iterations 2
ExecutionTime = 2.21 s  ClockTime = 4 s

Time = 20

smoothSolver:  Solving for Ux, Initial residual = 0.00416713, Final residual = 2.53622e-06, No Iterations 2
smoothSolver:  Solving for Uy, Initial residual = 0.00396229, Final residual = 1.38218e-06, No Iterations 2
smoothSolver:  Solving for Uz, Initial residual = 0.0666435, Final residual = 0.000600134, No Iterations 2
smoothSolver:  Solving for e, Initial residual = 0.0072214, Final residual = 0.000123967, No Iterations 1
GAMG:  Solving for p, Initial residual = 0.0552457, Final residual = 0.00208277, No Iterations 2
time step continuity errors : sum local = 2.60613, global = 0.342872, cumulative = 9.448
smoothSolver:  Solving for epsilon, Initial residual = 0.000857147, Final residual = 1.42547e-05, No Iterations 2
smoothSolver:  Solving for k, Initial residual = 0.00544307, Final residual = 0.000227231, No Iterations 2
ExecutionTime = 2.34 s  ClockTime = 4 s

Time = 21

smoothSolver:  Solving for Ux, Initial residual = 0.00444997, Final residual = 1.4655e-06, No Iterations 2
smoothSolver:  Solving for Uy, Initial residual = 0.00421831, Final residual = 7.68862e-07, No Iterations 2
smoothSolver:  Solving for Uz, Initial residual = 0.0895323, Final residual = 0.000371863, No Iterations 2
smoothSolver:  Solving for e, Initial residual = 0.00676197, Final residual = 0.000111326, No Iterations 1
GAMG:  Solving for p, Initial residual = 0.0311544, Final residual = 0.0014656, No Iterations 2
time step continuity errors : sum local = 3.12887, global = 0.931963, cumulative = 10.38
smoothSolver:  Solving for epsilon, Initial residual = 0.0006918, Final residual = 1.21668e-05, No Iterations 2
smoothSolver:  Solving for k, Initial residual = 0.0046962, Final residual = 0.000195815, No Iterations 2
ExecutionTime = 2.46 s  ClockTime = 4 s

Time = 22

smoothSolver:  Solving for Ux, Initial residual = 0.00497694, Final residual = 1.48328e-06, No Iterations 2
smoothSolver:  Solving for Uy, Initial residual = 0.00470262, Final residual = 6.2929e-07, No Iterations 2
smoothSolver:  Solving for Uz, Initial residual = 0.104275, Final residual = 0.000453892, No Iterations 2
smoothSolver:  Solving for e, Initial residual = 0.00622604, Final residual = 9.96555e-05, No Iterations 1
GAMG:  Solving for p, Initial residual = 0.0225681, Final residual = 0.00107779, No Iterations 3
time step continuity errors : sum local = 2.89165, global = 1.31861, cumulative = 11.6986
smoothSolver:  Solving for epsilon, Initial residual = 0.000582176, Final residual = 1.07991e-05, No Iterations 2
smoothSolver:  Solving for k, Initial residual = 0.00413629, Final residual = 0.000171099, No Iterations 2
ExecutionTime = 2.58 s  ClockTime = 4 s

Time = 23

smoothSolver:  Solving for Ux, Initial residual = 0.0052242, Final residual = 1.8282e-06, No Iterations 2
smoothSolver:  Solving for Uy, Initial residual = 0.00492652, Final residual = 9.97228e-07, No Iterations 2
smoothSolver:  Solving for Uz, Initial residual = 0.10345, Final residual = 0.000641857, No Iterations 2
smoothSolver:  Solving for e, Initial residual = 0.00559479, Final residual = 8.77323e-05, No Iterations 1
GAMG:  Solving for p, Initial residual = 0.017914, Final residual = 0.00073841, No Iterations 2
time step continuity errors : sum local = 2.18774, global = 0.178455, cumulative = 11.877
smoothSolver:  Solving for epsilon, Initial residual = 0.000533014, Final residual = 9.55557e-06, No Iterations 2
smoothSolver:  Solving for k, Initial residual = 0.00374929, Final residual = 0.000152099, No Iterations 2
ExecutionTime = 2.7 s  ClockTime = 4 s

Time = 24

smoothSolver:  Solving for Ux, Initial residual = 0.0049917, Final residual = 1.86335e-06, No Iterations 2
smoothSolver:  Solving for Uy, Initial residual = 0.0046823, Final residual = 8.05805e-07, No Iterations 2
smoothSolver:  Solving for Uz, Initial residual = 0.0702895, Final residual = 0.000582503, No Iterations 2
smoothSolver:  Solving for e, Initial residual = 0.00500056, Final residual = 7.66229e-05, No Iterations 1
GAMG:  Solving for p, Initial residual = 0.0140811, Final residual = 0.000612562, No Iterations 3
time step continuity errors : sum local = 1.80242, global = 1.66522, cumulative = 13.5422
smoothSolver:  Solving for epsilon, Initial residual = 0.000515266, Final residual = 8.92246e-06, No Iterations 2
smoothSolver:  Solving for k, Initial residual = 0.00334707, Final residual = 0.000138137, No Iterations 2
ExecutionTime = 2.86 s  ClockTime = 4 s

Time = 25

smoothSolver:  Solving for Ux, Initial residual = 0.00417409, Final residual = 1.76344e-06, No Iterations 2
smoothSolver:  Solving for Uy, Initial residual = 0.0038964, Final residual = 5.62474e-07, No Iterations 2
smoothSolver:  Solving for Uz, Initial residual = 0.0484087, Final residual = 0.00057547, No Iterations 2
smoothSolver:  Solving for e, Initial residual = 0.00442014, Final residual = 6.60551e-05, No Iterations 1
GAMG:  Solving for p, Initial residual = 0.0149715, Final residual = 0.000633739, No Iterations 3
time step continuity errors : sum local = 1.59089, global = 1.41534, cumulative = 14.9576
smoothSolver:  Solving for epsilon, Initial residual = 0.000476086, Final residual = 8.48737e-06, No Iterations 2
smoothSolver:  Solving for k, Initial residual = 0.00298589, Final residual = 0.000124735, No Iterations 2
ExecutionTime = 3.01 s  ClockTime = 5 s

Time = 26

smoothSolver:  Solving for Ux, Initial residual = 0.00298089, Final residual = 1.44359e-06, No Iterations 2
smoothSolver:  Solving for Uy, Initial residual = 0.002767, Final residual = 4.00083e-07, No Iterations 2
smoothSolver:  Solving for Uz, Initial residual = 0.0589164, Final residual = 0.000520008, No Iterations 2
smoothSolver:  Solving for e, Initial residual = 0.00383371, Final residual = 5.58727e-05, No Iterations 1
GAMG:  Solving for p, Initial residual = 0.0184249, Final residual = 0.000305282, No Iterations 4
time step continuity errors : sum local = 0.547693, global = -0.281067, cumulative = 14.6765
smoothSolver:  Solving for epsilon, Initial residual = 0.000413291, Final residual = 7.92909e-06, No Iterations 2
smoothSolver:  Solving for k, Initial residual = 0.00257846, Final residual = 0.00011016, No Iterations 2
ExecutionTime = 3.13 s  ClockTime = 5 s

Time = 27

smoothSolver:  Solving for Ux, Initial residual = 0.00212331, Final residual = 1.19596e-06, No Iterations 2
smoothSolver:  Solving for Uy, Initial residual = 0.00195348, Final residual = 3.9355e-07, No Iterations 2
smoothSolver:  Solving for Uz, Initial residual = 0.0480332, Final residual = 0.000348075, No Iterations 2
smoothSolver:  Solving for e, Initial residual = 0.003262, Final residual = 4.68286e-05, No Iterations 1
GAMG:  Solving for p, Initial residual = 0.0277175, Final residual = 0.000529402, No Iterations 3
time step continuity errors : sum local = 0.547424, global = -0.0978369, cumulative = 14.5787
smoothSolver:  Solving for epsilon, Initial residual = 0.000337652, Final residual = 7.19899e-06, No Iterations 2
smoothSolver:  Solving for k, Initial residual = 0.00212771, Final residual = 9.44517e-05, No Iterations 2
ExecutionTime = 3.24 s  ClockTime = 5 s

Time = 28

smoothSolver:  Solving for Ux, Initial residual = 0.00190702, Final residual = 7.22504e-07, No Iterations 2
smoothSolver:  Solving for Uy, Initial residual = 0.00174106, Final residual = 4.96771e-07, No Iterations 2
smoothSolver:  Solving for Uz, Initial residual = 0.0375667, Final residual = 0.00028033, No Iterations 2
smoothSolver:  Solving for e, Initial residual = 0.00278743, Final residual = 3.89159e-05, No Iterations 1
GAMG:  Solving for p, Initial residual = 0.0418416, Final residual = 0.00117589, No Iterations 3
time step continuity errors : sum local = 0.657719, global = 0.135765, cumulative = 14.7144
smoothSolver:  Solving for epsilon, Initial residual = 0.000263874, Final residual = 6.20462e-06, No Iterations 2
smoothSolver:  Solving for k, Initial residual = 0.00168751, Final residual = 7.76507e-05, No Iterations 2
ExecutionTime = 3.41 s  ClockTime = 5 s

Time = 29

smoothSolver:  Solving for Ux, Initial residual = 0.00173102, Final residual = 4.76797e-07, No Iterations 2
smoothSolver:  Solving for Uy, Initial residual = 0.00157392, Final residual = 3.97358e-07, No Iterations 2
smoothSolver:  Solving for Uz, Initial residual = 0.030535, Final residual = 0.000283705, No Iterations 2
smoothSolver:  Solving for e, Initial residual = 0.00236742, Final residual = 3.23165e-05, No Iterations 1
GAMG:  Solving for p, Initial residual = 0.0404324, Final residual = 0.00186599, No Iterations 2
time step continuity errors : sum local = 0.951147, global = 0.439046, cumulative = 15.1535
smoothSolver:  Solving for epsilon, Initial residual = 0.000206517, Final residual = 5.18588e-06, No Iterations 2
smoothSolver:  Solving for k, Initial residual = 0.00132974, Final residual = 6.23189e-05, No Iterations 2
ExecutionTime = 3.58 s  ClockTime = 5 s

Time = 30

smoothSolver:  Solving for Ux, Initial residual = 0.00151181, Final residual = 4.86422e-07, No Iterations 2
smoothSolver:  Solving for Uy, Initial residual = 0.00137836, Final residual = 1.69123e-07, No Iterations 2
smoothSolver:  Solving for Uz, Initial residual = 0.0227782, Final residual = 0.000253299, No Iterations 2
smoothSolver:  Solving for e, Initial residual = 0.00198473, Final residual = 2.67292e-05, No Iterations 1
GAMG:  Solving for p, Initial residual = 0.0313307, Final residual = 0.000586383, No Iterations 3
time step continuity errors : sum local = 0.3456, global = -0.0575647, cumulative = 15.0959
smoothSolver:  Solving for epsilon, Initial residual = 0.000169283, Final residual = 4.30999e-06, No Iterations 2
smoothSolver:  Solving for k, Initial residual = 0.00107311, Final residual = 5.08237e-05, No Iterations 2
ExecutionTime = 3.69 s  ClockTime = 5 s

Time = 31

smoothSolver:  Solving for Ux, Initial residual = 0.00153341, Final residual = 4.64918e-07, No Iterations 2
smoothSolver:  Solving for Uy, Initial residual = 0.00140333, Final residual = 1.75132e-07, No Iterations 2
smoothSolver:  Solving for Uz, Initial residual = 0.0211045, Final residual = 0.00019107, No Iterations 2
smoothSolver:  Solving for e, Initial residual = 0.00163629, Final residual = 2.19142e-05, No Iterations 1
GAMG:  Solving for p, Initial residual = 0.0177569, Final residual = 0.000330271, No Iterations 3
time step continuity errors : sum local = 0.312144, global = 0.0301851, cumulative = 15.1261
smoothSolver:  Solving for epsilon, Initial residual = 0.000150455, Final residual = 3.71087e-06, No Iterations 2
smoothSolver:  Solving for k, Initial residual = 0.000881092, Final residual = 4.25158e-05, No Iterations 2
ExecutionTime = 3.77 s  ClockTime = 5 s

Time = 32

smoothSolver:  Solving for Ux, Initial residual = 0.00197817, Final residual = 5.0111e-07, No Iterations 2
smoothSolver:  Solving for Uy, Initial residual = 0.00181073, Final residual = 1.44692e-07, No Iterations 2
smoothSolver:  Solving for Uz, Initial residual = 0.0195989, Final residual = 0.000125963, No Iterations 2
smoothSolver:  Solving for e, Initial residual = 0.00134026, Final residual = 1.79653e-05, No Iterations 1
GAMG:  Solving for p, Initial residual = 0.0106167, Final residual = 0.000184323, No Iterations 3
time step continuity errors : sum local = 0.253056, global = -0.0647583, cumulative = 15.0613
smoothSolver:  Solving for epsilon, Initial residual = 0.00013675, Final residual = 3.29318e-06, No Iterations 2
smoothSolver:  Solving for k, Initial residual = 0.000742289, Final residual = 3.62878e-05, No Iterations 2
ExecutionTime = 3.85 s  ClockTime = 6 s

Time = 33

smoothSolver:  Solving for Ux, Initial residual = 0.00248239, Final residual = 3.0674e-07, No Iterations 2
smoothSolver:  Solving for Uy, Initial residual = 0.00226613, Final residual = 1.91073e-07, No Iterations 2
smoothSolver:  Solving for Uz, Initial residual = 0.0156325, Final residual = 8.64349e-05, No Iterations 2
smoothSolver:  Solving for e, Initial residual = 0.00108707, Final residual = 1.47658e-05, No Iterations 1
GAMG:  Solving for p, Initial residual = 0.00693661, Final residual = 0.000158835, No Iterations 3
time step continuity errors : sum local = 0.268837, global = 0.138823, cumulative = 15.2002
smoothSolver:  Solving for epsilon, Initial residual = 0.000120297, Final residual = 2.88088e-06, No Iterations 2
smoothSolver:  Solving for k, Initial residual = 0.000635339, Final residual = 3.133e-05, No Iterations 2
ExecutionTime = 3.95 s  ClockTime = 6 s

Time = 34

smoothSolver:  Solving for Ux, Initial residual = 0.00264264, Final residual = 3.84812e-07, No Iterations 2
smoothSolver:  Solving for Uy, Initial residual = 0.00239607, Final residual = 1.67135e-07, No Iterations 2
smoothSolver:  Solving for Uz, Initial residual = 0.0139424, Final residual = 8.85492e-05, No Iterations 2
smoothSolver:  Solving for e, Initial residual = 0.00088185, Final residual = 1.22141e-05, No Iterations 1
GAMG:  Solving for p, Initial residual = 0.00576276, Final residual = 0.000179643, No Iterations 2
time step continuity errors : sum local = 0.322993, global = 0.0542782, cumulative = 15.2544
smoothSolver:  Solving for epsilon, Initial residual = 0.000105609, Final residual = 2.47256e-06, No Iterations 2
smoothSolver:  Solving for k, Initial residual = 0.000571317, Final residual = 2.93209e-05, No Iterations 2
ExecutionTime = 4.06 s  ClockTime = 6 s

Time = 35

smoothSolver:  Solving for Ux, Initial residual = 0.00263082, Final residual = 5.04709e-07, No Iterations 2
smoothSolver:  Solving for Uy, Initial residual = 0.00236435, Final residual = 8.6039e-08, No Iterations 2
smoothSolver:  Solving for Uz, Initial residual = 0.00977074, Final residual = 8.1293e-05, No Iterations 2
smoothSolver:  Solving for e, Initial residual = 0.000711091, Final residual = 1.01677e-05, No Iterations 1
GAMG:  Solving for p, Initial residual = 0.00525655, Final residual = 0.000157936, No Iterations 3
time step continuity errors : sum local = 0.283238, global = 0.212589, cumulative = 15.467
smoothSolver:  Solving for epsilon, Initial residual = 8.55344e-05, Final residual = 2.18034e-06, No Iterations 2
smoothSolver:  Solving for k, Initial residual = 0.000526121, Final residual = 2.76727e-05, No Iterations 2
ExecutionTime = 4.17 s  ClockTime = 6 s

Time = 36

smoothSolver:  Solving for Ux, Initial residual = 0.00236224, Final residual = 6.41725e-07, No Iterations 2
smoothSolver:  Solving for Uy, Initial residual = 0.00211333, Final residual = 1.3479e-07, No Iterations 2
smoothSolver:  Solving for Uz, Initial residual = 0.0106731, Final residual = 6.74522e-05, No Iterations 2
smoothSolver:  Solving for e, Initial residual = 0.000570963, Final residual = 8.51981e-06, No Iterations 1
GAMG:  Solving for p, Initial residual = 0.00524396, Final residual = 0.000202674, No Iterations 3
time step continuity errors : sum local = 0.3346, global = 0.142518, cumulative = 15.6096
smoothSolver:  Solving for epsilon, Initial residual = 6.87998e-05, Final residual = 1.96159e-06, No Iterations 2
smoothSolver:  Solving for k, Initial residual = 0.000499989, Final residual = 2.65013e-05, No Iterations 2
ExecutionTime = 4.29 s  ClockTime = 6 s

Time = 37

smoothSolver:  Solving for Ux, Initial residual = 0.00186693, Final residual = 7.76773e-07, No Iterations 2
smoothSolver:  Solving for Uy, Initial residual = 0.00166326, Final residual = 9.42522e-08, No Iterations 2
smoothSolver:  Solving for Uz, Initial residual = 0.0133064, Final residual = 5.94656e-05, No Iterations 2
smoothSolver:  Solving for e, Initial residual = 0.000455696, Final residual = 7.19664e-06, No Iterations 1
GAMG:  Solving for p, Initial residual = 0.00567186, Final residual = 0.000233464, No Iterations 2
time step continuity errors : sum local = 0.319103, global = 0.0682208, cumulative = 15.6778
smoothSolver:  Solving for epsilon, Initial residual = 6.32256e-05, Final residual = 1.92253e-06, No Iterations 2
smoothSolver:  Solving for k, Initial residual = 0.000500818, Final residual = 2.59744e-05, No Iterations 2
ExecutionTime = 4.39 s  ClockTime = 6 s

Time = 38

smoothSolver:  Solving for Ux, Initial residual = 0.00168698, Final residual = 5.47923e-07, No Iterations 2
smoothSolver:  Solving for Uy, Initial residual = 0.00150094, Final residual = 1.8161e-07, No Iterations 2
smoothSolver:  Solving for Uz, Initial residual = 0.0108415, Final residual = 5.10636e-05, No Iterations 2
smoothSolver:  Solving for e, Initial residual = 0.000359998, Final residual = 6.02086e-06, No Iterations 1
GAMG:  Solving for p, Initial residual = 0.00522881, Final residual = 0.00019659, No Iterations 2
time step continuity errors : sum local = 0.248365, global = 0.0784811, cumulative = 15.7563
smoothSolver:  Solving for epsilon, Initial residual = 6.37144e-05, Final residual = 1.92103e-06, No Iterations 2
smoothSolver:  Solving for k, Initial residual = 0.000496644, Final residual = 2.51132e-05, No Iterations 2
ExecutionTime = 4.47 s  ClockTime = 6 s

Time = 39

smoothSolver:  Solving for Ux, Initial residual = 0.00152277, Final residual = 2.90707e-07, No Iterations 2
smoothSolver:  Solving for Uy, Initial residual = 0.00135378, Final residual = 1.17812e-07, No Iterations 2
smoothSolver:  Solving for Uz, Initial residual = 0.00891862, Final residual = 4.26676e-05, No Iterations 2
smoothSolver:  Solving for e, Initial residual = 0.00028621, Final residual = 5.1352e-06, No Iterations 1
GAMG:  Solving for p, Initial residual = 0.00517059, Final residual = 0.000210168, No Iterations 2
time step continuity errors : sum local = 0.243959, global = 0.022241, cumulative = 15.7785
smoothSolver:  Solving for epsilon, Initial residual = 6.74461e-05, Final residual = 1.90354e-06, No Iterations 2
smoothSolver:  Solving for k, Initial residual = 0.000482571, Final residual = 2.40315e-05, No Iterations 2
ExecutionTime = 4.55 s  ClockTime = 6 s

Time = 40

smoothSolver:  Solving for Ux, Initial residual = 0.00142564, Final residual = 1.60931e-07, No Iterations 2
smoothSolver:  Solving for Uy, Initial residual = 0.00126473, Final residual = 5.89332e-08, No Iterations 2
smoothSolver:  Solving for Uz, Initial residual = 0.00794034, Final residual = 3.34544e-05, No Iterations 2
smoothSolver:  Solving for e, Initial residual = 0.000230408, Final residual = 4.53875e-06, No Iterations 1
GAMG:  Solving for p, Initial residual = 0.00507225, Final residual = 0.000199912, No Iterations 2
time step continuity errors : sum local = 0.220048, global = 0.0309245, cumulative = 15.8094
smoothSolver:  Solving for epsilon, Initial residual = 6.78597e-05, Final residual = 1.81527e-06, No Iterations 2
smoothSolver:  Solving for k, Initial residual = 0.000443135, Final residual = 2.23663e-05, No Iterations 2
ExecutionTime = 4.63 s  ClockTime = 7 s

Time = 41

smoothSolver:  Solving for Ux, Initial residual = 0.00136998, Final residual = 9.65143e-08, No Iterations 2
smoothSolver:  Solving for Uy, Initial residual = 0.00121406, Final residual = 1.11051e-07, No Iterations 2
smoothSolver:  Solving for Uz, Initial residual = 0.00842062, Final residual = 2.92645e-05, No Iterations 2
smoothSolver:  Solving for e, Initial residual = 0.00018826, Final residual = 4.11922e-06, No Iterations 1
GAMG:  Solving for p, Initial residual = 0.00480576, Final residual = 0.000169127, No Iterations 2
time step continuity errors : sum local = 0.180923, global = -0.0288864, cumulative = 15.7805
smoothSolver:  Solving for epsilon, Initial residual = 6.46933e-05, Final residual = 1.66729e-06, No Iterations 2
smoothSolver:  Solving for k, Initial residual = 0.000393633, Final residual = 2.03791e-05, No Iterations 2
ExecutionTime = 4.71 s  ClockTime = 7 s

Time = 42

smoothSolver:  Solving for Ux, Initial residual = 0.00135736, Final residual = 8.88768e-08, No Iterations 2
smoothSolver:  Solving for Uy, Initial residual = 0.00120024, Final residual = 8.72328e-08, No Iterations 2
smoothSolver:  Solving for Uz, Initial residual = 0.00825287, Final residual = 2.56496e-05, No Iterations 2
smoothSolver:  Solving for e, Initial residual = 0.00015702, Final residual = 3.82276e-06, No Iterations 1
GAMG:  Solving for p, Initial residual = 0.00443466, Final residual = 0.000131434, No Iterations 2
time step continuity errors : sum local = 0.138765, global = -0.048027, cumulative = 15.7325
smoothSolver:  Solving for epsilon, Initial residual = 5.82946e-05, Final residual = 1.49822e-06, No Iterations 2
smoothSolver:  Solving for k, Initial residual = 0.000345689, Final residual = 1.83678e-05, No Iterations 2
ExecutionTime = 4.79 s  ClockTime = 7 s

Time = 43

smoothSolver:  Solving for Ux, Initial residual = 0.00137364, Final residual = 9.51648e-08, No Iterations 2
smoothSolver:  Solving for Uy, Initial residual = 0.00121159, Final residual = 4.14645e-08, No Iterations 2
smoothSolver:  Solving for Uz, Initial residual = 0.00782463, Final residual = 2.33629e-05, No Iterations 2
smoothSolver:  Solving for e, Initial residual = 0.000134142, Final residual = 3.62783e-06, No Iterations 1
GAMG:  Solving for p, Initial residual = 0.00395664, Final residual = 0.000192072, No Iterations 2
time step continuity errors : sum local = 0.202989, global = -0.102105, cumulative = 15.6304
smoothSolver:  Solving for epsilon, Initial residual = 5.14843e-05, Final residual = 1.34796e-06, No Iterations 2
smoothSolver:  Solving for k, Initial residual = 0.000309446, Final residual = 1.65984e-05, No Iterations 2
ExecutionTime = 4.87 s  ClockTime = 7 s

Time = 44

smoothSolver:  Solving for Ux, Initial residual = 0.00146609, Final residual = 8.86931e-08, No Iterations 2
smoothSolver:  Solving for Uy, Initial residual = 0.00128986, Final residual = 5.34605e-08, No Iterations 2
smoothSolver:  Solving for Uz, Initial residual = 0.00798487, Final residual = 1.8807e-05, No Iterations 2
smoothSolver:  Solving for e, Initial residual = 0.000117815, Final residual = 3.5137e-06, No Iterations 1
GAMG:  Solving for p, Initial residual = 0.00338784, Final residual = 3.49963e-05, No Iterations 3
time step continuity errors : sum local = 0.0388987, global = -0.00249333, cumulative = 15.6279
smoothSolver:  Solving for epsilon, Initial residual = 4.49812e-05, Final residual = 1.22259e-06, No Iterations 2
smoothSolver:  Solving for k, Initial residual = 0.000282738, Final residual = 1.51215e-05, No Iterations 2
ExecutionTime = 4.94 s  ClockTime = 7 s

Time = 45

smoothSolver:  Solving for Ux, Initial residual = 0.00156881, Final residual = 9.75574e-08, No Iterations 2
smoothSolver:  Solving for Uy, Initial residual = 0.00137671, Final residual = 5.40781e-08, No Iterations 2
smoothSolver:  Solving for Uz, Initial residual = 0.00694822, Final residual = 1.54085e-05, No Iterations 2
smoothSolver:  Solving for e, Initial residual = 0.000108505, Final residual = 3.46653e-06, No Iterations 1
GAMG:  Solving for p, Initial residual = 0.0029573, Final residual = 0.000127458, No Iterations 2
time step continuity errors : sum local = 0.150927, global = -0.0950055, cumulative = 15.5329
smoothSolver:  Solving for epsilon, Initial residual = 4.0415e-05, Final residual = 1.10658e-06, No Iterations 2
smoothSolver:  Solving for k, Initial residual = 0.000264098, Final residual = 1.38989e-05, No Iterations 2
ExecutionTime = 5.01 s  ClockTime = 7 s

Time = 46

smoothSolver:  Solving for Ux, Initial residual = 0.00167369, Final residual = 1.67662e-07, No Iterations 2
smoothSolver:  Solving for Uy, Initial residual = 0.00146296, Final residual = 3.44363e-08, No Iterations 2
smoothSolver:  Solving for Uz, Initial residual = 0.00609402, Final residual = 1.2809e-05, No Iterations 2
smoothSolver:  Solving for e, Initial residual = 0.000104171, Final residual = 3.50226e-06, No Iterations 1
GAMG:  Solving for p, Initial residual = 0.00268334, Final residual = 0.000113523, No Iterations 2
time step continuity errors : sum local = 0.141098, global = 0.0759183, cumulative = 15.6088
smoothSolver:  Solving for epsilon, Initial residual = 3.76761e-05, Final residual = 1.03254e-06, No Iterations 2
smoothSolver:  Solving for k, Initial residual = 0.000252522, Final residual = 1.30837e-05, No Iterations 2
ExecutionTime = 5.11 s  ClockTime = 7 s

Time = 47

smoothSolver:  Solving for Ux, Initial residual = 0.00172221, Final residual = 1.86695e-07, No Iterations 2
smoothSolver:  Solving for Uy, Initial residual = 0.00150028, Final residual = 4.26449e-08, No Iterations 2
smoothSolver:  Solving for Uz, Initial residual = 0.00515593, Final residual = 1.35363e-05, No Iterations 2
smoothSolver:  Solving for e, Initial residual = 0.000101369, Final residual = 3.50159e-06, No Iterations 1
GAMG:  Solving for p, Initial residual = 0.00237456, Final residual = 5.05588e-05, No Iterations 2
time step continuity errors : sum local = 0.0640818, global = 0.00878763, cumulative = 15.6176
smoothSolver:  Solving for epsilon, Initial residual = 3.66309e-05, Final residual = 9.90957e-07, No Iterations 2
smoothSolver:  Solving for k, Initial residual = 0.000251499, Final residual = 1.25289e-05, No Iterations 2
ExecutionTime = 5.18 s  ClockTime = 7 s

Time = 48

smoothSolver:  Solving for Ux, Initial residual = 0.00172319, Final residual = 1.89489e-07, No Iterations 2
smoothSolver:  Solving for Uy, Initial residual = 0.001497, Final residual = 4.27256e-08, No Iterations 2
smoothSolver:  Solving for Uz, Initial residual = 0.00469832, Final residual = 1.43387e-05, No Iterations 2
smoothSolver:  Solving for e, Initial residual = 0.000102601, Final residual = 3.50437e-06, No Iterations 1
GAMG:  Solving for p, Initial residual = 0.00215292, Final residual = 9.62681e-05, No Iterations 2
time step continuity errors : sum local = 0.122063, global = -0.051834, cumulative = 15.5658
smoothSolver:  Solving for epsilon, Initial residual = 3.52946e-05, Final residual = 9.48696e-07, No Iterations 2
smoothSolver:  Solving for k, Initial residual = 0.000245287, Final residual = 1.19691e-05, No Iterations 2
ExecutionTime = 5.25 s  ClockTime = 7 s

Time = 49

smoothSolver:  Solving for Ux, Initial residual = 0.00165334, Final residual = 2.22021e-07, No Iterations 2
smoothSolver:  Solving for Uy, Initial residual = 0.00143199, Final residual = 1.88613e-08, No Iterations 2
smoothSolver:  Solving for Uz, Initial residual = 0.0048107, Final residual = 1.25276e-05, No Iterations 2
smoothSolver:  Solving for e, Initial residual = 0.000106619, Final residual = 3.51154e-06, No Iterations 1
GAMG:  Solving for p, Initial residual = 0.00204244, Final residual = 2.942e-05, No Iterations 3
time step continuity errors : sum local = 0.0362138, global = -0.0114857, cumulative = 15.5543
smoothSolver:  Solving for epsilon, Initial residual = 3.37439e-05, Final residual = 9.08207e-07, No Iterations 2
smoothSolver:  Solving for k, Initial residual = 0.000236531, Final residual = 1.14117e-05, No Iterations 2
ExecutionTime = 5.32 s  ClockTime = 7 s

Time = 50

smoothSolver:  Solving for Ux, Initial residual = 0.0015624, Final residual = 2.2863e-07, No Iterations 2
smoothSolver:  Solving for Uy, Initial residual = 0.00134973, Final residual = 3.14069e-08, No Iterations 2
smoothSolver:  Solving for Uz, Initial residual = 0.00521766, Final residual = 9.53235e-06, No Iterations 2
smoothSolver:  Solving for e, Initial residual = 0.000108142, Final residual = 3.47676e-06, No Iterations 1
GAMG:  Solving for p, Initial residual = 0.00199365, Final residual = 4.09585e-05, No Iterations 3
time step continuity errors : sum local = 0.0483898, global = -0.0175283, cumulative = 15.5368
smoothSolver:  Solving for epsilon, Initial residual = 3.27507e-05, Final residual = 8.82517e-07, No Iterations 2
smoothSolver:  Solving for k, Initial residual = 0.000229789, Final residual = 1.08923e-05, No Iterations 2
ExecutionTime = 5.4 s  ClockTime = 7 s

Time = 51

smoothSolver:  Solving for Ux, Initial residual = 0.00148166, Final residual = 1.96067e-07, No Iterations 2
smoothSolver:  Solving for Uy, Initial residual = 0.00127739, Final residual = 3.41323e-08, No Iterations 2
smoothSolver:  Solving for Uz, Initial residual = 0.00509945, Final residual = 7.91573e-06, No Iterations 2
smoothSolver:  Solving for e, Initial residual = 0.000108498, Final residual = 3.419e-06, No Iterations 1
GAMG:  Solving for p, Initial residual = 0.00196303, Final residual = 7.41829e-05, No Iterations 3
time step continuity errors : sum local = 0.0843344, global = -0.0404106, cumulative = 15.4963
smoothSolver:  Solving for epsilon, Initial residual = 3.19372e-05, Final residual = 8.54591e-07, No Iterations 2
smoothSolver:  Solving for k, Initial residual = 0.000221797, Final residual = 1.03314e-05, No Iterations 2
ExecutionTime = 5.48 s  ClockTime = 8 s

Time = 52

smoothSolver:  Solving for Ux, Initial residual = 0.00142872, Final residual = 1.62006e-07, No Iterations 2
smoothSolver:  Solving for Uy, Initial residual = 0.00122947, Final residual = 2.88912e-08, No Iterations 2
smoothSolver:  Solving for Uz, Initial residual = 0.00476836, Final residual = 6.20044e-06, No Iterations 2
smoothSolver:  Solving for e, Initial residual = 0.000108715, Final residual = 3.36303e-06, No Iterations 1
GAMG:  Solving for p, Initial residual = 0.00193822, Final residual = 4.99872e-05, No Iterations 2
time step continuity errors : sum local = 0.0552866, global = -0.00477791, cumulative = 15.4916
smoothSolver:  Solving for epsilon, Initial residual = 3.11071e-05, Final residual = 8.23929e-07, No Iterations 2
smoothSolver:  Solving for k, Initial residual = 0.000210569, Final residual = 9.74827e-06, No Iterations 2
ExecutionTime = 5.57 s  ClockTime = 8 s

Time = 53

smoothSolver:  Solving for Ux, Initial residual = 0.00142801, Final residual = 1.3254e-07, No Iterations 2
smoothSolver:  Solving for Uy, Initial residual = 0.00122642, Final residual = 3.00682e-08, No Iterations 2
smoothSolver:  Solving for Uz, Initial residual = 0.00477974, Final residual = 7.81365e-06, No Iterations 2
smoothSolver:  Solving for e, Initial residual = 0.000107823, Final residual = 3.29128e-06, No Iterations 1
GAMG:  Solving for p, Initial residual = 0.0018751, Final residual = 3.77084e-05, No Iterations 2
time step continuity errors : sum local = 0.041529, global = -0.000853694, cumulative = 15.4907
smoothSolver:  Solving for epsilon, Initial residual = 2.93772e-05, Final residual = 7.75944e-07, No Iterations 2
smoothSolver:  Solving for k, Initial residual = 0.000197118, Final residual = 9.09083e-06, No Iterations 2
ExecutionTime = 5.7 s  ClockTime = 8 s

Time = 54

smoothSolver:  Solving for Ux, Initial residual = 0.00142844, Final residual = 1.07145e-07, No Iterations 2
smoothSolver:  Solving for Uy, Initial residual = 0.00122429, Final residual = 2.38174e-08, No Iterations 2
smoothSolver:  Solving for Uz, Initial residual = 0.00452098, Final residual = 7.11826e-06, No Iterations 2
smoothSolver:  Solving for e, Initial residual = 0.000106819, Final residual = 3.21773e-06, No Iterations 1
GAMG:  Solving for p, Initial residual = 0.00182203, Final residual = 3.33755e-05, No Iterations 2
time step continuity errors : sum local = 0.036622, global = 0.000890329, cumulative = 15.4916
smoothSolver:  Solving for epsilon, Initial residual = 2.74328e-05, Final residual = 7.25397e-07, No Iterations 2
smoothSolver:  Solving for k, Initial residual = 0.000183176, Final residual = 8.4884e-06, No Iterations 2
ExecutionTime = 5.84 s  ClockTime = 8 s

Time = 55

smoothSolver:  Solving for Ux, Initial residual = 0.00143116, Final residual = 9.03274e-08, No Iterations 2
smoothSolver:  Solving for Uy, Initial residual = 0.00122383, Final residual = 2.16573e-08, No Iterations 2
smoothSolver:  Solving for Uz, Initial residual = 0.0040579, Final residual = 5.61929e-06, No Iterations 2
smoothSolver:  Solving for e, Initial residual = 0.000105734, Final residual = 3.14235e-06, No Iterations 1
GAMG:  Solving for p, Initial residual = 0.00178091, Final residual = 3.19182e-05, No Iterations 2
time step continuity errors : sum local = 0.0349337, global = -0.00663148, cumulative = 15.485
smoothSolver:  Solving for epsilon, Initial residual = 2.5621e-05, Final residual = 6.80657e-07, No Iterations 2
smoothSolver:  Solving for k, Initial residual = 0.00017, Final residual = 7.96512e-06, No Iterations 2
ExecutionTime = 5.95 s  ClockTime = 8 s

Time = 56

smoothSolver:  Solving for Ux, Initial residual = 0.00143909, Final residual = 8.25195e-08, No Iterations 2
smoothSolver:  Solving for Uy, Initial residual = 0.00122736, Final residual = 1.73019e-08, No Iterations 2
smoothSolver:  Solving for Uz, Initial residual = 0.00353637, Final residual = 5.77242e-06, No Iterations 2
smoothSolver:  Solving for e, Initial residual = 0.000104471, Final residual = 3.06605e-06, No Iterations 1
GAMG:  Solving for p, Initial residual = 0.00171711, Final residual = 3.42714e-05, No Iterations 2
time step continuity errors : sum local = 0.0375184, global = 0.018212, cumulative = 15.5032
smoothSolver:  Solving for epsilon, Initial residual = 2.40105e-05, Final residual = 6.40506e-07, No Iterations 2
smoothSolver:  Solving for k, Initial residual = 0.000158888, Final residual = 7.51909e-06, No Iterations 2
ExecutionTime = 6.09 s  ClockTime = 8 s

Time = 57

smoothSolver:  Solving for Ux, Initial residual = 0.00145777, Final residual = 9.23106e-08, No Iterations 2
smoothSolver:  Solving for Uy, Initial residual = 0.00123989, Final residual = 1.889e-08, No Iterations 2
smoothSolver:  Solving for Uz, Initial residual = 0.00331846, Final residual = 5.08526e-06, No Iterations 2
smoothSolver:  Solving for e, Initial residual = 0.000102623, Final residual = 2.98639e-06, No Iterations 1
GAMG:  Solving for p, Initial residual = 0.00165311, Final residual = 7.39845e-05, No Iterations 1
time step continuity errors : sum local = 0.08147, global = 0.0053361, cumulative = 15.5085
smoothSolver:  Solving for epsilon, Initial residual = 2.26958e-05, Final residual = 6.02208e-07, No Iterations 2
smoothSolver:  Solving for k, Initial residual = 0.000151025, Final residual = 7.12706e-06, No Iterations 2
ExecutionTime = 6.22 s  ClockTime = 8 s

Time = 58

smoothSolver:  Solving for Ux, Initial residual = 0.00145906, Final residual = 1.00888e-07, No Iterations 2
smoothSolver:  Solving for Uy, Initial residual = 0.00123776, Final residual = 1.67897e-08, No Iterations 2
smoothSolver:  Solving for Uz, Initial residual = 0.00283314, Final residual = 3.37023e-06, No Iterations 2
smoothSolver:  Solving for e, Initial residual = 0.00010113, Final residual = 2.91333e-06, No Iterations 1
GAMG:  Solving for p, Initial residual = 0.00162053, Final residual = 3.16375e-05, No Iterations 2
time step continuity errors : sum local = 0.0347769, global = -0.000326781, cumulative = 15.5082
smoothSolver:  Solving for epsilon, Initial residual = 2.11446e-05, Final residual = 5.73358e-07, No Iterations 2
smoothSolver:  Solving for k, Initial residual = 0.000146016, Final residual = 6.82617e-06, No Iterations 2
ExecutionTime = 6.35 s  ClockTime = 9 s

Time = 59

smoothSolver:  Solving for Ux, Initial residual = 0.00146699, Final residual = 1.10424e-07, No Iterations 2
smoothSolver:  Solving for Uy, Initial residual = 0.00124144, Final residual = 2.04382e-08, No Iterations 2
smoothSolver:  Solving for Uz, Initial residual = 0.00306221, Final residual = 3.39613e-06, No Iterations 2
smoothSolver:  Solving for e, Initial residual = 9.9267e-05, Final residual = 2.83198e-06, No Iterations 1
GAMG:  Solving for p, Initial residual = 0.00155002, Final residual = 7.24592e-05, No Iterations 1
time step continuity errors : sum local = 0.0798258, global = 0.00219224, cumulative = 15.5104
smoothSolver:  Solving for epsilon, Initial residual = 2.11402e-05, Final residual = 5.50263e-07, No Iterations 2
smoothSolver:  Solving for k, Initial residual = 0.000143272, Final residual = 6.57084e-06, No Iterations 2
ExecutionTime = 6.49 s  ClockTime = 9 s

Time = 60

smoothSolver:  Solving for Ux, Initial residual = 0.00146829, Final residual = 1.14843e-07, No Iterations 2
smoothSolver:  Solving for Uy, Initial residual = 0.00123933, Final residual = 1.63241e-08, No Iterations 2
smoothSolver:  Solving for Uz, Initial residual = 0.00276637, Final residual = 2.85735e-06, No Iterations 2
smoothSolver:  Solving for e, Initial residual = 9.75836e-05, Final residual = 2.75348e-06, No Iterations 1
GAMG:  Solving for p, Initial residual = 0.00150147, Final residual = 3.65452e-05, No Iterations 2
time step continuity errors : sum local = 0.0401928, global = 0.00220144, cumulative = 15.5126
smoothSolver:  Solving for epsilon, Initial residual = 1.9215e-05, Final residual = 5.31311e-07, No Iterations 2
smoothSolver:  Solving for k, Initial residual = 0.000139867, Final residual = 6.34143e-06, No Iterations 2
ExecutionTime = 6.63 s  ClockTime = 9 s

Time = 61

smoothSolver:  Solving for Ux, Initial residual = 0.00146414, Final residual = 1.01893e-07, No Iterations 2
smoothSolver:  Solving for Uy, Initial residual = 0.00123366, Final residual = 2.78344e-08, No Iterations 2
smoothSolver:  Solving for Uz, Initial residual = 0.00301937, Final residual = 2.35199e-06, No Iterations 2
smoothSolver:  Solving for e, Initial residual = 9.54925e-05, Final residual = 2.66203e-06, No Iterations 1
GAMG:  Solving for p, Initial residual = 0.00142899, Final residual = 6.46626e-05, No Iterations 1
time step continuity errors : sum local = 0.0709126, global = -0.00228223, cumulative = 15.5103
smoothSolver:  Solving for epsilon, Initial residual = 1.90378e-05, Final residual = 5.17112e-07, No Iterations 2
smoothSolver:  Solving for k, Initial residual = 0.000138291, Final residual = 6.13705e-06, No Iterations 2
ExecutionTime = 6.76 s  ClockTime = 9 s

Time = 62

smoothSolver:  Solving for Ux, Initial residual = 0.00146531, Final residual = 1.04043e-07, No Iterations 2
smoothSolver:  Solving for Uy, Initial residual = 0.00123149, Final residual = 1.98213e-08, No Iterations 2
smoothSolver:  Solving for Uz, Initial residual = 0.0027345, Final residual = 2.03945e-06, No Iterations 2
smoothSolver:  Solving for e, Initial residual = 9.37307e-05, Final residual = 2.5804e-06, No Iterations 1
GAMG:  Solving for p, Initial residual = 0.00139053, Final residual = 3.59555e-05, No Iterations 2
time step continuity errors : sum local = 0.0393635, global = 0.00114891, cumulative = 15.5115
smoothSolver:  Solving for epsilon, Initial residual = 1.83058e-05, Final residual = 4.9281e-07, No Iterations 2
smoothSolver:  Solving for k, Initial residual = 0.000133464, Final residual = 5.90361e-06, No Iterations 2
ExecutionTime = 6.91 s  ClockTime = 9 s

Time = 63

smoothSolver:  Solving for Ux, Initial residual = 0.00141858, Final residual = 1.12356e-07, No Iterations 2
smoothSolver:  Solving for Uy, Initial residual = 0.00118976, Final residual = 1.95402e-08, No Iterations 2
smoothSolver:  Solving for Uz, Initial residual = 0.00313525, Final residual = 2.5877e-06, No Iterations 2
smoothSolver:  Solving for e, Initial residual = 9.20312e-05, Final residual = 2.50079e-06, No Iterations 1
GAMG:  Solving for p, Initial residual = 0.00136221, Final residual = 6.15757e-05, No Iterations 1
time step continuity errors : sum local = 0.0658282, global = -0.0088477, cumulative = 15.5026
smoothSolver:  Solving for epsilon, Initial residual = 1.82132e-05, Final residual = 4.75891e-07, No Iterations 2
smoothSolver:  Solving for k, Initial residual = 0.000131729, Final residual = 5.71256e-06, No Iterations 2
ExecutionTime = 7.07 s  ClockTime = 9 s

Time = 64

smoothSolver:  Solving for Ux, Initial residual = 0.0014195, Final residual = 1.09584e-07, No Iterations 2
smoothSolver:  Solving for Uy, Initial residual = 0.00118755, Final residual = 1.78069e-08, No Iterations 2
smoothSolver:  Solving for Uz, Initial residual = 0.00281407, Final residual = 2.04876e-06, No Iterations 2
smoothSolver:  Solving for e, Initial residual = 9.01893e-05, Final residual = 2.4166e-06, No Iterations 1
GAMG:  Solving for p, Initial residual = 0.00133411, Final residual = 1.66335e-05, No Iterations 3
time step continuity errors : sum local = 0.0177506, global = -0.00543316, cumulative = 15.4972
smoothSolver:  Solving for epsilon, Initial residual = 1.72166e-05, Final residual = 4.59922e-07, No Iterations 2
smoothSolver:  Solving for k, Initial residual = 0.00012493, Final residual = 5.43385e-06, No Iterations 2
ExecutionTime = 7.24 s  ClockTime = 10 s

Time = 65

smoothSolver:  Solving for Ux, Initial residual = 0.00137374, Final residual = 8.13884e-08, No Iterations 2
smoothSolver:  Solving for Uy, Initial residual = 0.00114753, Final residual = 2.40303e-08, No Iterations 2
smoothSolver:  Solving for Uz, Initial residual = 0.00311759, Final residual = 2.79981e-06, No Iterations 2
smoothSolver:  Solving for e, Initial residual = 8.80494e-05, Final residual = 2.32308e-06, No Iterations 1
GAMG:  Solving for p, Initial residual = 0.00132786, Final residual = 6.57225e-05, No Iterations 1
time step continuity errors : sum local = 0.0685001, global = -0.00950573, cumulative = 15.4877
smoothSolver:  Solving for epsilon, Initial residual = 1.71383e-05, Final residual = 4.50144e-07, No Iterations 2
smoothSolver:  Solving for k, Initial residual = 0.000122147, Final residual = 5.24094e-06, No Iterations 2
ExecutionTime = 7.38 s  ClockTime = 10 s

Time = 66

smoothSolver:  Solving for Ux, Initial residual = 0.00137446, Final residual = 7.99933e-08, No Iterations 2
smoothSolver:  Solving for Uy, Initial residual = 0.00114549, Final residual = 1.91861e-08, No Iterations 2
smoothSolver:  Solving for Uz, Initial residual = 0.00279504, Final residual = 2.11522e-06, No Iterations 2
smoothSolver:  Solving for e, Initial residual = 8.62694e-05, Final residual = 2.24127e-06, No Iterations 1
GAMG:  Solving for p, Initial residual = 0.0012987, Final residual = 6.35484e-05, No Iterations 2
time step continuity errors : sum local = 0.0661095, global = 0.0421636, cumulative = 15.5298
smoothSolver:  Solving for epsilon, Initial residual = 1.66285e-05, Final residual = 4.33194e-07, No Iterations 2
smoothSolver:  Solving for k, Initial residual = 0.000116054, Final residual = 4.99859e-06, No Iterations 2
ExecutionTime = 7.52 s  ClockTime = 10 s

Time = 67

smoothSolver:  Solving for Ux, Initial residual = 0.00134892, Final residual = 5.39833e-08, No Iterations 2
smoothSolver:  Solving for Uy, Initial residual = 0.00112241, Final residual = 2.2412e-08, No Iterations 2
smoothSolver:  Solving for Uz, Initial residual = 0.00281048, Final residual = 2.67029e-06, No Iterations 2
smoothSolver:  Solving for e, Initial residual = 8.37018e-05, Final residual = 2.14449e-06, No Iterations 1
GAMG:  Solving for p, Initial residual = 0.00132643, Final residual = 5.51508e-05, No Iterations 2
time step continuity errors : sum local = 0.0565089, global = -0.0381906, cumulative = 15.4916
smoothSolver:  Solving for epsilon, Initial residual = 1.59132e-05, Final residual = 4.08995e-07, No Iterations 2
smoothSolver:  Solving for k, Initial residual = 0.000112487, Final residual = 4.73581e-06, No Iterations 2
ExecutionTime = 7.64 s  ClockTime = 10 s

Time = 68

smoothSolver:  Solving for Ux, Initial residual = 0.00134097, Final residual = 6.34228e-08, No Iterations 2
smoothSolver:  Solving for Uy, Initial residual = 0.00111364, Final residual = 2.26742e-08, No Iterations 2
smoothSolver:  Solving for Uz, Initial residual = 0.00281033, Final residual = 2.66626e-06, No Iterations 2
smoothSolver:  Solving for e, Initial residual = 8.29822e-05, Final residual = 2.08251e-06, No Iterations 1
GAMG:  Solving for p, Initial residual = 0.00127426, Final residual = 5.10403e-05, No Iterations 1
time step continuity errors : sum local = 0.0519618, global = -0.00227221, cumulative = 15.4894
smoothSolver:  Solving for epsilon, Initial residual = 1.48753e-05, Final residual = 3.80306e-07, No Iterations 2
smoothSolver:  Solving for k, Initial residual = 0.000104693, Final residual = 4.43972e-06, No Iterations 2
ExecutionTime = 7.77 s  ClockTime = 10 s

Time = 69

smoothSolver:  Solving for Ux, Initial residual = 0.001342, Final residual = 6.52433e-08, No Iterations 2
smoothSolver:  Solving for Uy, Initial residual = 0.0011118, Final residual = 2.27501e-08, No Iterations 2
smoothSolver:  Solving for Uz, Initial residual = 0.00241405, Final residual = 2.06396e-06, No Iterations 2
smoothSolver:  Solving for e, Initial residual = 8.126e-05, Final residual = 2.00539e-06, No Iterations 1
GAMG:  Solving for p, Initial residual = 0.00127865, Final residual = 2.34284e-05, No Iterations 2
time step continuity errors : sum local = 0.0238027, global = 0.0145564, cumulative = 15.5039
smoothSolver:  Solving for epsilon, Initial residual = 1.4151e-05, Final residual = 3.63884e-07, No Iterations 2
smoothSolver:  Solving for k, Initial residual = 9.91217e-05, Final residual = 4.21248e-06, No Iterations 2
ExecutionTime = 7.89 s  ClockTime = 10 s

Time = 70

smoothSolver:  Solving for Ux, Initial residual = 0.00134049, Final residual = 5.31227e-08, No Iterations 2
smoothSolver:  Solving for Uy, Initial residual = 0.00110832, Final residual = 1.98126e-08, No Iterations 2
smoothSolver:  Solving for Uz, Initial residual = 0.00240728, Final residual = 1.67624e-06, No Iterations 2
smoothSolver:  Solving for e, Initial residual = 7.91686e-05, Final residual = 1.91964e-06, No Iterations 1
GAMG:  Solving for p, Initial residual = 0.00121221, Final residual = 4.19814e-05, No Iterations 1
time step continuity errors : sum local = 0.0425344, global = -0.0120202, cumulative = 15.4919
smoothSolver:  Solving for epsilon, Initial residual = 1.37547e-05, Final residual = 3.4546e-07, No Iterations 2
smoothSolver:  Solving for k, Initial residual = 9.56619e-05, Final residual = 3.99239e-06, No Iterations 2
ExecutionTime = 8 s  ClockTime = 11 s

Time = 71

smoothSolver:  Solving for Ux, Initial residual = 0.00134133, Final residual = 5.51891e-08, No Iterations 2
smoothSolver:  Solving for Uy, Initial residual = 0.00110648, Final residual = 1.63563e-08, No Iterations 2
smoothSolver:  Solving for Uz, Initial residual = 0.00210221, Final residual = 1.36064e-06, No Iterations 2
smoothSolver:  Solving for e, Initial residual = 7.76388e-05, Final residual = 1.84876e-06, No Iterations 1
GAMG:  Solving for p, Initial residual = 0.0011933, Final residual = 4.83375e-05, No Iterations 1
time step continuity errors : sum local = 0.0489005, global = -0.0111616, cumulative = 15.4807
smoothSolver:  Solving for epsilon, Initial residual = 1.28865e-05, Final residual = 3.2887e-07, No Iterations 2
smoothSolver:  Solving for k, Initial residual = 9.18172e-05, Final residual = 3.78711e-06, No Iterations 2
ExecutionTime = 8.12 s  ClockTime = 11 s

Time = 72

smoothSolver:  Solving for Ux, Initial residual = 0.00134218, Final residual = 5.66289e-08, No Iterations 2
smoothSolver:  Solving for Uy, Initial residual = 0.00110464, Final residual = 1.3371e-08, No Iterations 2
smoothSolver:  Solving for Uz, Initial residual = 0.00194981, Final residual = 1.24171e-06, No Iterations 2
smoothSolver:  Solving for e, Initial residual = 7.60961e-05, Final residual = 1.77856e-06, No Iterations 1
GAMG:  Solving for p, Initial residual = 0.00117086, Final residual = 2.02381e-05, No Iterations 2
time step continuity errors : sum local = 0.02044, global = 0.0138381, cumulative = 15.4946
smoothSolver:  Solving for epsilon, Initial residual = 1.21499e-05, Final residual = 3.11604e-07, No Iterations 2
smoothSolver:  Solving for k, Initial residual = 8.9131e-05, Final residual = 3.61063e-06, No Iterations 2
ExecutionTime = 8.24 s  ClockTime = 11 s

Time = 73

smoothSolver:  Solving for Ux, Initial residual = 0.00133865, Final residual = 4.71176e-08, No Iterations 2
smoothSolver:  Solving for Uy, Initial residual = 0.00109977, Final residual = 1.90375e-08, No Iterations 2
smoothSolver:  Solving for Uz, Initial residual = 0.00220752, Final residual = 2.2184e-06, No Iterations 2
smoothSolver:  Solving for e, Initial residual = 7.40422e-05, Final residual = 1.70139e-06, No Iterations 1
GAMG:  Solving for p, Initial residual = 0.00113158, Final residual = 5.26774e-05, No Iterations 1
time step continuity errors : sum local = 0.0530191, global = 0.0161737, cumulative = 15.5108
smoothSolver:  Solving for epsilon, Initial residual = 1.15568e-05, Final residual = 2.95892e-07, No Iterations 2
smoothSolver:  Solving for k, Initial residual = 8.68919e-05, Final residual = 3.42204e-06, No Iterations 2
ExecutionTime = 8.4 s  ClockTime = 11 s

Time = 74

smoothSolver:  Solving for Ux, Initial residual = 0.00133919, Final residual = 4.839e-08, No Iterations 2
smoothSolver:  Solving for Uy, Initial residual = 0.001098, Final residual = 1.4383e-08, No Iterations 2
smoothSolver:  Solving for Uz, Initial residual = 0.0020157, Final residual = 1.8485e-06, No Iterations 2
smoothSolver:  Solving for e, Initial residual = 7.26533e-05, Final residual = 1.63598e-06, No Iterations 1
GAMG:  Solving for p, Initial residual = 0.0011228, Final residual = 1.34498e-05, No Iterations 3
time step continuity errors : sum local = 0.0135148, global = 0.00864442, cumulative = 15.5194
smoothSolver:  Solving for epsilon, Initial residual = 1.13934e-05, Final residual = 2.80009e-07, No Iterations 2
smoothSolver:  Solving for k, Initial residual = 8.42016e-05, Final residual = 3.25815e-06, No Iterations 2
ExecutionTime = 8.64 s  ClockTime = 11 s

Time = 75

smoothSolver:  Solving for Ux, Initial residual = 0.00132098, Final residual = 4.83749e-08, No Iterations 2
smoothSolver:  Solving for Uy, Initial residual = 0.00108109, Final residual = 1.67159e-08, No Iterations 2
smoothSolver:  Solving for Uz, Initial residual = 0.00225091, Final residual = 1.83196e-06, No Iterations 2
smoothSolver:  Solving for e, Initial residual = 7.14477e-05, Final residual = 1.57322e-06, No Iterations 1
GAMG:  Solving for p, Initial residual = 0.00109011, Final residual = 4.82772e-05, No Iterations 1
time step continuity errors : sum local = 0.0479881, global = 0.0150372, cumulative = 15.5344
smoothSolver:  Solving for epsilon, Initial residual = 1.12615e-05, Final residual = 2.66288e-07, No Iterations 2
smoothSolver:  Solving for k, Initial residual = 8.13195e-05, Final residual = 3.10024e-06, No Iterations 2
ExecutionTime = 8.76 s  ClockTime = 11 s

Time = 76

smoothSolver:  Solving for Ux, Initial residual = 0.00132173, Final residual = 4.84107e-08, No Iterations 2
smoothSolver:  Solving for Uy, Initial residual = 0.0010793, Final residual = 1.51774e-08, No Iterations 2
smoothSolver:  Solving for Uz, Initial residual = 0.00198505, Final residual = 1.44568e-06, No Iterations 2
smoothSolver:  Solving for e, Initial residual = 7.00212e-05, Final residual = 1.51117e-06, No Iterations 1
GAMG:  Solving for p, Initial residual = 0.00106439, Final residual = 4.9109e-05, No Iterations 1
time step continuity errors : sum local = 0.0487341, global = 0.00290054, cumulative = 15.5373
smoothSolver:  Solving for epsilon, Initial residual = 1.08888e-05, Final residual = 2.52388e-07, No Iterations 2
smoothSolver:  Solving for k, Initial residual = 7.78234e-05, Final residual = 2.925e-06, No Iterations 2
ExecutionTime = 8.86 s  ClockTime = 12 s

Time = 77

smoothSolver:  Solving for Ux, Initial residual = 0.00132239, Final residual = 4.59358e-08, No Iterations 2
smoothSolver:  Solving for Uy, Initial residual = 0.00107751, Final residual = 1.27005e-08, No Iterations 2
smoothSolver:  Solving for Uz, Initial residual = 0.00183899, Final residual = 1.3123e-06, No Iterations 2
smoothSolver:  Solving for e, Initial residual = 6.85918e-05, Final residual = 1.45125e-06, No Iterations 1
GAMG:  Solving for p, Initial residual = 0.0010368, Final residual = 4.51917e-05, No Iterations 2
time step continuity errors : sum local = 0.0447793, global = 0.0253785, cumulative = 15.5627
smoothSolver:  Solving for epsilon, Initial residual = 9.8505e-06, Final residual = 2.43174e-07, No Iterations 2
smoothSolver:  Solving for k, Initial residual = 7.34046e-05, Final residual = 2.77041e-06, No Iterations 2
ExecutionTime = 8.97 s  ClockTime = 12 s

Time = 78

smoothSolver:  Solving for Ux, Initial residual = 0.00127976, Final residual = 2.38388e-08, No Iterations 2
smoothSolver:  Solving for Uy, Initial residual = 0.00104146, Final residual = 2.90501e-08, No Iterations 2
smoothSolver:  Solving for Uz, Initial residual = 0.00212601, Final residual = 2.6005e-06, No Iterations 2
smoothSolver:  Solving for e, Initial residual = 6.67894e-05, Final residual = 1.38666e-06, No Iterations 1
GAMG:  Solving for p, Initial residual = 0.00106815, Final residual = 5.07448e-05, No Iterations 1
time step continuity errors : sum local = 0.0491527, global = 0.0116406, cumulative = 15.5744
smoothSolver:  Solving for epsilon, Initial residual = 1.00782e-05, Final residual = 2.36505e-07, No Iterations 2
smoothSolver:  Solving for k, Initial residual = 7.10803e-05, Final residual = 2.62094e-06, No Iterations 2
ExecutionTime = 9.06 s  ClockTime = 12 s

Time = 79

smoothSolver:  Solving for Ux, Initial residual = 0.00128013, Final residual = 2.16378e-08, No Iterations 2
smoothSolver:  Solving for Uy, Initial residual = 0.00103971, Final residual = 1.91745e-08, No Iterations 2
smoothSolver:  Solving for Uz, Initial residual = 0.00190706, Final residual = 1.9795e-06, No Iterations 2
smoothSolver:  Solving for e, Initial residual = 6.56163e-05, Final residual = 1.33551e-06, No Iterations 1
GAMG:  Solving for p, Initial residual = 0.00104852, Final residual = 1.1431e-05, No Iterations 3
time step continuity errors : sum local = 0.0110561, global = 0.00421153, cumulative = 15.5786
smoothSolver:  Solving for epsilon, Initial residual = 9.02869e-06, Final residual = 2.06452e-07, No Iterations 2
smoothSolver:  Solving for k, Initial residual = 6.60496e-05, Final residual = 2.38162e-06, No Iterations 2
ExecutionTime = 9.14 s  ClockTime = 12 s

Time = 80

smoothSolver:  Solving for Ux, Initial residual = 0.00124829, Final residual = 4.93047e-08, No Iterations 2
smoothSolver:  Solving for Uy, Initial residual = 0.00101203, Final residual = 3.19892e-08, No Iterations 2
smoothSolver:  Solving for Uz, Initial residual = 0.00204093, Final residual = 2.45895e-06, No Iterations 2
smoothSolver:  Solving for e, Initial residual = 6.47251e-05, Final residual = 1.29297e-06, No Iterations 1
GAMG:  Solving for p, Initial residual = 0.00105739, Final residual = 2.63308e-05, No Iterations 2
time step continuity errors : sum local = 0.0250039, global = 0.00255199, cumulative = 15.5811
smoothSolver:  Solving for epsilon, Initial residual = 8.42628e-06, Final residual = 1.9308e-07, No Iterations 2
smoothSolver:  Solving for k, Initial residual = 6.33794e-05, Final residual = 2.21928e-06, No Iterations 2
ExecutionTime = 9.23 s  ClockTime = 12 s

Time = 81

smoothSolver:  Solving for Ux, Initial residual = 0.00122884, Final residual = 2.81119e-08, No Iterations 2
smoothSolver:  Solving for Uy, Initial residual = 0.00099435, Final residual = 1.46451e-08, No Iterations 2
smoothSolver:  Solving for Uz, Initial residual = 0.0019923, Final residual = 1.82102e-06, No Iterations 2
smoothSolver:  Solving for e, Initial residual = 6.33082e-05, Final residual = 1.23941e-06, No Iterations 1
GAMG:  Solving for p, Initial residual = 0.00103342, Final residual = 4.18608e-05, No Iterations 1
time step continuity errors : sum local = 0.0392919, global = -0.00664636, cumulative = 15.5745
smoothSolver:  Solving for epsilon, Initial residual = 8.38091e-06, Final residual = 1.75391e-07, No Iterations 2
smoothSolver:  Solving for k, Initial residual = 6.03173e-05, Final residual = 2.00785e-06, No Iterations 2
ExecutionTime = 9.31 s  ClockTime = 12 s

Time = 82

smoothSolver:  Solving for Ux, Initial residual = 0.00122941, Final residual = 2.73869e-08, No Iterations 2
smoothSolver:  Solving for Uy, Initial residual = 0.000992815, Final residual = 1.16925e-08, No Iterations 2
smoothSolver:  Solving for Uz, Initial residual = 0.00172848, Final residual = 1.40498e-06, No Iterations 2
smoothSolver:  Solving for e, Initial residual = 6.21718e-05, Final residual = 1.19609e-06, No Iterations 1
GAMG:  Solving for p, Initial residual = 0.00101187, Final residual = 4.30903e-05, No Iterations 1
time step continuity errors : sum local = 0.0403869, global = -0.0116673, cumulative = 15.5628
smoothSolver:  Solving for epsilon, Initial residual = 7.50402e-06, Final residual = 1.60939e-07, No Iterations 2
smoothSolver:  Solving for k, Initial residual = 5.69581e-05, Final residual = 1.80447e-06, No Iterations 2
ExecutionTime = 9.4 s  ClockTime = 12 s

Time = 83

smoothSolver:  Solving for Ux, Initial residual = 0.00123145, Final residual = 2.56251e-08, No Iterations 2
smoothSolver:  Solving for Uy, Initial residual = 0.000992564, Final residual = 1.26189e-08, No Iterations 2
smoothSolver:  Solving for Uz, Initial residual = 0.00158459, Final residual = 1.20561e-06, No Iterations 2
smoothSolver:  Solving for e, Initial residual = 6.10369e-05, Final residual = 1.15518e-06, No Iterations 1
GAMG:  Solving for p, Initial residual = 0.0009862, Final residual = 4.72402e-05, No Iterations 1
time step continuity errors : sum local = 0.0442444, global = -0.0127512, cumulative = 15.5501
smoothSolver:  Solving for epsilon, Initial residual = 6.95258e-06, Final residual = 1.47355e-07, No Iterations 2
smoothSolver:  Solving for k, Initial residual = 5.40411e-05, Final residual = 1.63858e-06, No Iterations 2
ExecutionTime = 9.48 s  ClockTime = 12 s

Time = 84

smoothSolver:  Solving for Ux, Initial residual = 0.0012343, Final residual = 2.38688e-08, No Iterations 2
smoothSolver:  Solving for Uy, Initial residual = 0.000993024, Final residual = 1.53664e-08, No Iterations 2
smoothSolver:  Solving for Uz, Initial residual = 0.00153605, Final residual = 1.59602e-06, No Iterations 2
smoothSolver:  Solving for e, Initial residual = 5.9887e-05, Final residual = 1.11564e-06, No Iterations 1
GAMG:  Solving for p, Initial residual = 0.000967198, Final residual = 1.7588e-05, No Iterations 2
time step continuity errors : sum local = 0.0164676, global = 0.00272663, cumulative = 15.5528
smoothSolver:  Solving for epsilon, Initial residual = 6.85882e-06, Final residual = 1.42039e-07, No Iterations 2
smoothSolver:  Solving for k, Initial residual = 5.22585e-05, Final residual = 1.53657e-06, No Iterations 2
ExecutionTime = 9.57 s  ClockTime = 12 s

Time = 85

smoothSolver:  Solving for Ux, Initial residual = 0.00123862, Final residual = 3.68394e-08, No Iterations 2
smoothSolver:  Solving for Uy, Initial residual = 0.000994846, Final residual = 2.77778e-08, No Iterations 2
smoothSolver:  Solving for Uz, Initial residual = 0.00174675, Final residual = 2.43564e-06, No Iterations 2
smoothSolver:  Solving for e, Initial residual = 5.84365e-05, Final residual = 1.07199e-06, No Iterations 1
GAMG:  Solving for p, Initial residual = 0.000965676, Final residual = 1.28184e-05, No Iterations 2
time step continuity errors : sum local = 0.0120054, global = -0.00129959, cumulative = 15.5515
smoothSolver:  Solving for epsilon, Initial residual = 6.5268e-06, Final residual = 1.31951e-07, No Iterations 2
smoothSolver:  Solving for k, Initial residual = 5.04039e-05, Final residual = 1.41168e-06, No Iterations 2
ExecutionTime = 9.66 s  ClockTime = 12 s

Time = 86

smoothSolver:  Solving for Ux, Initial residual = 0.00124006, Final residual = 3.29995e-08, No Iterations 2
smoothSolver:  Solving for Uy, Initial residual = 0.000994179, Final residual = 1.33892e-08, No Iterations 2
smoothSolver:  Solving for Uz, Initial residual = 0.00177443, Final residual = 2.43314e-06, No Iterations 2
smoothSolver:  Solving for e, Initial residual = 5.75221e-05, Final residual = 1.03696e-06, No Iterations 1
GAMG:  Solving for p, Initial residual = 0.000936981, Final residual = 4.61803e-05, No Iterations 1
time step continuity errors : sum local = 0.0432067, global = 0.0122219, cumulative = 15.5637
[...]
smoothSolver:  Solving for Uy, Initial residual = 1.69044e-05, Final residual = 2.17554e-10, No Iterations 2
smoothSolver:  Solving for Uz, Initial residual = 0.000104054, Final residual = 1.65782e-07, No Iterations 2
smoothSolver:  Solving for e, Initial residual = 9.95358e-07, Final residual = 9.95358e-07, No Iterations 0
GAMG:  Solving for p, Initial residual = 1.57811e-05, Final residual = 1.57897e-07, No Iterations 3
time step continuity errors : sum local = 5.25097e-05, global = 1.77758e-05, cumulative = 15.6733
smoothSolver:  Solving for epsilon, Initial residual = 2.24844e-06, Final residual = 7.09985e-08, No Iterations 2
smoothSolver:  Solving for k, Initial residual = 1.57112e-05, Final residual = 8.91266e-07, No Iterations 2
ExecutionTime = 67.11 s  ClockTime = 80 s

Time = 619

smoothSolver:  Solving for Ux, Initial residual = 2.55633e-05, Final residual = 2.15145e-08, No Iterations 2
smoothSolver:  Solving for Uy, Initial residual = 1.68123e-05, Final residual = 2.1845e-10, No Iterations 2
smoothSolver:  Solving for Uz, Initial residual = 0.000104097, Final residual = 1.64495e-07, No Iterations 2
smoothSolver:  Solving for e, Initial residual = 1.00131e-06, Final residual = 1.99252e-08, No Iterations 1
GAMG:  Solving for p, Initial residual = 1.56562e-05, Final residual = 1.57497e-07, No Iterations 3
time step continuity errors : sum local = 5.23655e-05, global = 1.56258e-05, cumulative = 15.6733
smoothSolver:  Solving for epsilon, Initial residual = 2.23247e-06, Final residual = 7.05192e-08, No Iterations 2
smoothSolver:  Solving for k, Initial residual = 1.56101e-05, Final residual = 8.85314e-07, No Iterations 2
ExecutionTime = 67.24 s  ClockTime = 81 s

Time = 620

smoothSolver:  Solving for Ux, Initial residual = 2.54158e-05, Final residual = 2.13552e-08, No Iterations 2
smoothSolver:  Solving for Uy, Initial residual = 1.67157e-05, Final residual = 2.11824e-10, No Iterations 2
smoothSolver:  Solving for Uz, Initial residual = 0.000103999, Final residual = 1.64669e-07, No Iterations 2
smoothSolver:  Solving for e, Initial residual = 8.84796e-07, Final residual = 8.84796e-07, No Iterations 0
GAMG:  Solving for p, Initial residual = 1.54852e-05, Final residual = 5.24329e-07, No Iterations 2
time step continuity errors : sum local = 0.000174292, global = -3.74153e-06, cumulative = 15.6733
smoothSolver:  Solving for epsilon, Initial residual = 2.2151e-06, Final residual = 7.00363e-08, No Iterations 2
smoothSolver:  Solving for k, Initial residual = 1.55081e-05, Final residual = 8.79346e-07, No Iterations 2
ExecutionTime = 67.35 s  ClockTime = 81 s

Time = 621

smoothSolver:  Solving for Ux, Initial residual = 2.52638e-05, Final residual = 2.11367e-08, No Iterations 2
smoothSolver:  Solving for Uy, Initial residual = 1.66169e-05, Final residual = 2.10131e-10, No Iterations 2
smoothSolver:  Solving for Uz, Initial residual = 0.000103489, Final residual = 1.66796e-07, No Iterations 2
smoothSolver:  Solving for e, Initial residual = 8.88902e-07, Final residual = 8.88902e-07, No Iterations 0
GAMG:  Solving for p, Initial residual = 1.57497e-05, Final residual = 5.50126e-07, No Iterations 2
time step continuity errors : sum local = 0.000182826, global = 6.86807e-05, cumulative = 15.6734
smoothSolver:  Solving for epsilon, Initial residual = 2.20144e-06, Final residual = 6.95721e-08, No Iterations 2
smoothSolver:  Solving for k, Initial residual = 1.54085e-05, Final residual = 8.73522e-07, No Iterations 2
ExecutionTime = 67.52 s  ClockTime = 81 s

Time = 622

smoothSolver:  Solving for Ux, Initial residual = 2.51243e-05, Final residual = 2.10881e-08, No Iterations 2
smoothSolver:  Solving for Uy, Initial residual = 1.65248e-05, Final residual = 2.26949e-10, No Iterations 2
smoothSolver:  Solving for Uz, Initial residual = 0.000103147, Final residual = 1.66603e-07, No Iterations 2
smoothSolver:  Solving for e, Initial residual = 8.91659e-07, Final residual = 8.91659e-07, No Iterations 0
GAMG:  Solving for p, Initial residual = 1.53435e-05, Final residual = 7.3108e-07, No Iterations 2
time step continuity errors : sum local = 0.000242911, global = -0.000103605, cumulative = 15.6733
smoothSolver:  Solving for epsilon, Initial residual = 2.18773e-06, Final residual = 6.91143e-08, No Iterations 2
smoothSolver:  Solving for k, Initial residual = 1.53071e-05, Final residual = 8.67776e-07, No Iterations 2
ExecutionTime = 67.73 s  ClockTime = 81 s

Time = 623

smoothSolver:  Solving for Ux, Initial residual = 2.49906e-05, Final residual = 2.09149e-08, No Iterations 2
smoothSolver:  Solving for Uy, Initial residual = 1.6437e-05, Final residual = 2.10076e-10, No Iterations 2
smoothSolver:  Solving for Uz, Initial residual = 0.000102802, Final residual = 1.65326e-07, No Iterations 2
smoothSolver:  Solving for e, Initial residual = 8.97335e-07, Final residual = 8.97335e-07, No Iterations 0
GAMG:  Solving for p, Initial residual = 1.55182e-05, Final residual = 1.22018e-07, No Iterations 3
time step continuity errors : sum local = 4.05338e-05, global = -2.71106e-06, cumulative = 15.6732
smoothSolver:  Solving for epsilon, Initial residual = 2.17547e-06, Final residual = 6.8667e-08, No Iterations 2
smoothSolver:  Solving for k, Initial residual = 1.52112e-05, Final residual = 8.62095e-07, No Iterations 2
ExecutionTime = 67.9 s  ClockTime = 81 s

Time = 624

smoothSolver:  Solving for Ux, Initial residual = 2.48731e-05, Final residual = 2.08114e-08, No Iterations 2
smoothSolver:  Solving for Uy, Initial residual = 1.63596e-05, Final residual = 2.17467e-10, No Iterations 2
smoothSolver:  Solving for Uz, Initial residual = 0.000102859, Final residual = 1.63304e-07, No Iterations 2
smoothSolver:  Solving for e, Initial residual = 9.00485e-07, Final residual = 9.00485e-07, No Iterations 0
GAMG:  Solving for p, Initial residual = 1.53251e-05, Final residual = 7.23926e-07, No Iterations 2
time step continuity errors : sum local = 0.000240441, global = 0.000121942, cumulative = 15.6734
smoothSolver:  Solving for epsilon, Initial residual = 2.15711e-06, Final residual = 6.81889e-08, No Iterations 2
smoothSolver:  Solving for k, Initial residual = 1.51084e-05, Final residual = 8.56261e-07, No Iterations 2
ExecutionTime = 68.05 s  ClockTime = 82 s

Time = 625

smoothSolver:  Solving for Ux, Initial residual = 2.47441e-05, Final residual = 2.06234e-08, No Iterations 2
smoothSolver:  Solving for Uy, Initial residual = 1.62757e-05, Final residual = 2.13229e-10, No Iterations 2
smoothSolver:  Solving for Uz, Initial residual = 0.000102568, Final residual = 1.64e-07, No Iterations 2
smoothSolver:  Solving for e, Initial residual = 9.02907e-07, Final residual = 9.02907e-07, No Iterations 0
GAMG:  Solving for p, Initial residual = 1.55867e-05, Final residual = 1.73055e-07, No Iterations 3
time step continuity errors : sum local = 5.74664e-05, global = 2.23441e-05, cumulative = 15.6734
smoothSolver:  Solving for epsilon, Initial residual = 2.1466e-06, Final residual = 6.77551e-08, No Iterations 2
smoothSolver:  Solving for k, Initial residual = 1.50085e-05, Final residual = 8.5067e-07, No Iterations 2
ExecutionTime = 68.19 s  ClockTime = 82 s

Time = 626

smoothSolver:  Solving for Ux, Initial residual = 2.46218e-05, Final residual = 2.05388e-08, No Iterations 2
smoothSolver:  Solving for Uy, Initial residual = 1.6195e-05, Final residual = 2.1606e-10, No Iterations 2
smoothSolver:  Solving for Uz, Initial residual = 0.000102609, Final residual = 1.63307e-07, No Iterations 2
smoothSolver:  Solving for e, Initial residual = 9.08219e-07, Final residual = 9.08219e-07, No Iterations 0
GAMG:  Solving for p, Initial residual = 1.5306e-05, Final residual = 1.63618e-07, No Iterations 3
time step continuity errors : sum local = 5.43225e-05, global = 1.80679e-05, cumulative = 15.6734
smoothSolver:  Solving for epsilon, Initial residual = 2.13167e-06, Final residual = 6.72997e-08, No Iterations 2
smoothSolver:  Solving for k, Initial residual = 1.49124e-05, Final residual = 8.44987e-07, No Iterations 2
ExecutionTime = 68.34 s  ClockTime = 82 s

Time = 627

smoothSolver:  Solving for Ux, Initial residual = 2.44826e-05, Final residual = 2.03943e-08, No Iterations 2
smoothSolver:  Solving for Uy, Initial residual = 1.61036e-05, Final residual = 2.09159e-10, No Iterations 2
smoothSolver:  Solving for Uz, Initial residual = 0.000102514, Final residual = 1.63509e-07, No Iterations 2
smoothSolver:  Solving for e, Initial residual = 9.13245e-07, Final residual = 9.13245e-07, No Iterations 0
GAMG:  Solving for p, Initial residual = 1.49828e-05, Final residual = 5.2758e-07, No Iterations 2
time step continuity errors : sum local = 0.000175122, global = -1.17224e-05, cumulative = 15.6734
smoothSolver:  Solving for epsilon, Initial residual = 2.11521e-06, Final residual = 6.68387e-08, No Iterations 2
smoothSolver:  Solving for k, Initial residual = 1.48161e-05, Final residual = 8.39266e-07, No Iterations 2
ExecutionTime = 68.48 s  ClockTime = 82 s

Time = 628

smoothSolver:  Solving for Ux, Initial residual = 2.43333e-05, Final residual = 2.01657e-08, No Iterations 2
smoothSolver:  Solving for Uy, Initial residual = 1.60069e-05, Final residual = 2.05452e-10, No Iterations 2
smoothSolver:  Solving for Uz, Initial residual = 0.00010201, Final residual = 1.65149e-07, No Iterations 2
smoothSolver:  Solving for e, Initial residual = 9.17387e-07, Final residual = 9.17387e-07, No Iterations 0
GAMG:  Solving for p, Initial residual = 1.54153e-05, Final residual = 6.78134e-07, No Iterations 2
time step continuity errors : sum local = 0.000225045, global = 0.000113964, cumulative = 15.6735
smoothSolver:  Solving for epsilon, Initial residual = 2.10202e-06, Final residual = 6.63925e-08, No Iterations 2
smoothSolver:  Solving for k, Initial residual = 1.47211e-05, Final residual = 8.3367e-07, No Iterations 2
ExecutionTime = 68.61 s  ClockTime = 82 s

Time = 629

smoothSolver:  Solving for Ux, Initial residual = 2.42015e-05, Final residual = 2.01252e-08, No Iterations 2
smoothSolver:  Solving for Uy, Initial residual = 1.592e-05, Final residual = 2.2093e-10, No Iterations 2
smoothSolver:  Solving for Uz, Initial residual = 0.000101763, Final residual = 1.64711e-07, No Iterations 2
smoothSolver:  Solving for e, Initial residual = 9.19438e-07, Final residual = 9.19438e-07, No Iterations 0
GAMG:  Solving for p, Initial residual = 1.50125e-05, Final residual = 1.35999e-07, No Iterations 3
time step continuity errors : sum local = 4.51233e-05, global = 1.31662e-05, cumulative = 15.6735
smoothSolver:  Solving for epsilon, Initial residual = 2.09102e-06, Final residual = 6.59662e-08, No Iterations 2
smoothSolver:  Solving for k, Initial residual = 1.46239e-05, Final residual = 8.28241e-07, No Iterations 2
ExecutionTime = 68.69 s  ClockTime = 82 s

Time = 630

smoothSolver:  Solving for Ux, Initial residual = 2.40773e-05, Final residual = 2.00043e-08, No Iterations 2
smoothSolver:  Solving for Uy, Initial residual = 1.58384e-05, Final residual = 2.19095e-10, No Iterations 2
smoothSolver:  Solving for Uz, Initial residual = 0.00010165, Final residual = 1.6224e-07, No Iterations 2
smoothSolver:  Solving for e, Initial residual = 9.24257e-07, Final residual = 9.24257e-07, No Iterations 0
GAMG:  Solving for p, Initial residual = 1.49045e-05, Final residual = 1.4375e-07, No Iterations 3
time step continuity errors : sum local = 4.76859e-05, global = 1.25425e-05, cumulative = 15.6735
smoothSolver:  Solving for epsilon, Initial residual = 2.07595e-06, Final residual = 6.55154e-08, No Iterations 2
smoothSolver:  Solving for k, Initial residual = 1.45277e-05, Final residual = 8.22679e-07, No Iterations 2
ExecutionTime = 68.77 s  ClockTime = 82 s

Time = 631

smoothSolver:  Solving for Ux, Initial residual = 2.39548e-05, Final residual = 1.98447e-08, No Iterations 2
smoothSolver:  Solving for Uy, Initial residual = 1.57582e-05, Final residual = 2.07401e-10, No Iterations 2
smoothSolver:  Solving for Uz, Initial residual = 0.000101572, Final residual = 1.61506e-07, No Iterations 2
smoothSolver:  Solving for e, Initial residual = 9.28957e-07, Final residual = 9.28957e-07, No Iterations 0
GAMG:  Solving for p, Initial residual = 1.49202e-05, Final residual = 4.95232e-07, No Iterations 2
time step continuity errors : sum local = 0.000164251, global = 1.1818e-05, cumulative = 15.6736
smoothSolver:  Solving for epsilon, Initial residual = 2.05967e-06, Final residual = 6.5067e-08, No Iterations 2
smoothSolver:  Solving for k, Initial residual = 1.44328e-05, Final residual = 8.17138e-07, No Iterations 2
ExecutionTime = 68.84 s  ClockTime = 83 s

Time = 632

smoothSolver:  Solving for Ux, Initial residual = 2.38321e-05, Final residual = 1.96433e-08, No Iterations 2
smoothSolver:  Solving for Uy, Initial residual = 1.56787e-05, Final residual = 2.08221e-10, No Iterations 2
smoothSolver:  Solving for Uz, Initial residual = 0.000101085, Final residual = 1.63262e-07, No Iterations 2
smoothSolver:  Solving for e, Initial residual = 9.32786e-07, Final residual = 9.32786e-07, No Iterations 0
GAMG:  Solving for p, Initial residual = 1.51007e-05, Final residual = 4.29641e-07, No Iterations 2
time step continuity errors : sum local = 0.000142469, global = 2.7209e-05, cumulative = 15.6736
smoothSolver:  Solving for epsilon, Initial residual = 2.04733e-06, Final residual = 6.46355e-08, No Iterations 2
smoothSolver:  Solving for k, Initial residual = 1.43406e-05, Final residual = 8.11712e-07, No Iterations 2
ExecutionTime = 68.9 s  ClockTime = 83 s

Time = 633

smoothSolver:  Solving for Ux, Initial residual = 2.37148e-05, Final residual = 1.96207e-08, No Iterations 2
smoothSolver:  Solving for Uy, Initial residual = 1.5601e-05, Final residual = 2.23706e-10, No Iterations 2
smoothSolver:  Solving for Uz, Initial residual = 0.000100777, Final residual = 1.63585e-07, No Iterations 2
smoothSolver:  Solving for e, Initial residual = 9.36035e-07, Final residual = 9.36035e-07, No Iterations 0
GAMG:  Solving for p, Initial residual = 1.46367e-05, Final residual = 5.96348e-07, No Iterations 2
time step continuity errors : sum local = 0.000197713, global = -5.6249e-05, cumulative = 15.6735
smoothSolver:  Solving for epsilon, Initial residual = 2.03441e-06, Final residual = 6.4212e-08, No Iterations 2
smoothSolver:  Solving for k, Initial residual = 1.42471e-05, Final residual = 8.06347e-07, No Iterations 2
ExecutionTime = 68.96 s  ClockTime = 83 s

Time = 634

smoothSolver:  Solving for Ux, Initial residual = 2.35956e-05, Final residual = 1.94201e-08, No Iterations 2
smoothSolver:  Solving for Uy, Initial residual = 1.55233e-05, Final residual = 2.02196e-10, No Iterations 2
smoothSolver:  Solving for Uz, Initial residual = 0.000100579, Final residual = 1.62929e-07, No Iterations 2
smoothSolver:  Solving for e, Initial residual = 9.40955e-07, Final residual = 9.40955e-07, No Iterations 0
GAMG:  Solving for p, Initial residual = 1.48909e-05, Final residual = 6.19242e-07, No Iterations 2
time step continuity errors : sum local = 0.000205266, global = 9.71628e-05, cumulative = 15.6736
smoothSolver:  Solving for epsilon, Initial residual = 2.0207e-06, Final residual = 6.37776e-08, No Iterations 2
smoothSolver:  Solving for k, Initial residual = 1.41544e-05, Final residual = 8.00918e-07, No Iterations 2
ExecutionTime = 69.02 s  ClockTime = 83 s

Time = 635

smoothSolver:  Solving for Ux, Initial residual = 2.34811e-05, Final residual = 1.93168e-08, No Iterations 2
smoothSolver:  Solving for Uy, Initial residual = 1.54481e-05, Final residual = 2.07642e-10, No Iterations 2
smoothSolver:  Solving for Uz, Initial residual = 0.000100486, Final residual = 1.61879e-07, No Iterations 2
smoothSolver:  Solving for e, Initial residual = 9.43514e-07, Final residual = 9.43514e-07, No Iterations 0
GAMG:  Solving for p, Initial residual = 1.48314e-05, Final residual = 1.40728e-07, No Iterations 3
time step continuity errors : sum local = 4.664e-05, global = 1.40103e-05, cumulative = 15.6736
smoothSolver:  Solving for epsilon, Initial residual = 2.00985e-06, Final residual = 6.33634e-08, No Iterations 2
smoothSolver:  Solving for k, Initial residual = 1.40597e-05, Final residual = 7.9563e-07, No Iterations 2
ExecutionTime = 69.08 s  ClockTime = 83 s

Time = 636

smoothSolver:  Solving for Ux, Initial residual = 2.33649e-05, Final residual = 1.92153e-08, No Iterations 2
smoothSolver:  Solving for Uy, Initial residual = 1.53716e-05, Final residual = 2.13759e-10, No Iterations 2
smoothSolver:  Solving for Uz, Initial residual = 0.000100635, Final residual = 1.59891e-07, No Iterations 2
smoothSolver:  Solving for e, Initial residual = 9.48141e-07, Final residual = 9.48141e-07, No Iterations 0
GAMG:  Solving for p, Initial residual = 1.4703e-05, Final residual = 1.43386e-07, No Iterations 3
time step continuity errors : sum local = 4.75121e-05, global = 1.13272e-05, cumulative = 15.6736
smoothSolver:  Solving for epsilon, Initial residual = 1.9952e-06, Final residual = 6.29294e-08, No Iterations 2
smoothSolver:  Solving for k, Initial residual = 1.39672e-05, Final residual = 7.90252e-07, No Iterations 2
ExecutionTime = 69.15 s  ClockTime = 83 s

Time = 637

smoothSolver:  Solving for Ux, Initial residual = 2.32408e-05, Final residual = 1.90664e-08, No Iterations 2
smoothSolver:  Solving for Uy, Initial residual = 1.52903e-05, Final residual = 2.05118e-10, No Iterations 2
smoothSolver:  Solving for Uz, Initial residual = 0.000100604, Final residual = 1.5978e-07, No Iterations 2
smoothSolver:  Solving for e, Initial residual = 9.52617e-07, Final residual = 9.52617e-07, No Iterations 0
GAMG:  Solving for p, Initial residual = 1.45754e-05, Final residual = 4.93216e-07, No Iterations 2
time step continuity errors : sum local = 0.000163399, global = 9.82792e-06, cumulative = 15.6737
smoothSolver:  Solving for epsilon, Initial residual = 1.97943e-06, Final residual = 6.24962e-08, No Iterations 2
smoothSolver:  Solving for k, Initial residual = 1.3876e-05, Final residual = 7.84889e-07, No Iterations 2
ExecutionTime = 69.24 s  ClockTime = 83 s

Time = 638

smoothSolver:  Solving for Ux, Initial residual = 2.31141e-05, Final residual = 1.88644e-08, No Iterations 2
smoothSolver:  Solving for Uy, Initial residual = 1.52083e-05, Final residual = 2.02413e-10, No Iterations 2
smoothSolver:  Solving for Uz, Initial residual = 0.000100121, Final residual = 1.62399e-07, No Iterations 2
smoothSolver:  Solving for e, Initial residual = 9.56399e-07, Final residual = 9.56399e-07, No Iterations 0
GAMG:  Solving for p, Initial residual = 1.47532e-05, Final residual = 4.06174e-07, No Iterations 2
time step continuity errors : sum local = 0.000134536, global = 1.44198e-05, cumulative = 15.6737
smoothSolver:  Solving for epsilon, Initial residual = 1.96766e-06, Final residual = 6.20801e-08, No Iterations 2
smoothSolver:  Solving for k, Initial residual = 1.37871e-05, Final residual = 7.79653e-07, No Iterations 2
ExecutionTime = 69.33 s  ClockTime = 83 s

Time = 639

smoothSolver:  Solving for Ux, Initial residual = 2.29936e-05, Final residual = 1.8834e-08, No Iterations 2
smoothSolver:  Solving for Uy, Initial residual = 1.51287e-05, Final residual = 2.16385e-10, No Iterations 2
smoothSolver:  Solving for Uz, Initial residual = 9.97577e-05, Final residual = 1.62569e-07, No Iterations 2
smoothSolver:  Solving for e, Initial residual = 9.59853e-07, Final residual = 9.59853e-07, No Iterations 0
GAMG:  Solving for p, Initial residual = 1.44164e-05, Final residual = 4.97346e-07, No Iterations 2
time step continuity errors : sum local = 0.000164704, global = -2.6368e-05, cumulative = 15.6736
smoothSolver:  Solving for epsilon, Initial residual = 1.95504e-06, Final residual = 6.16689e-08, No Iterations 2
smoothSolver:  Solving for k, Initial residual = 1.36969e-05, Final residual = 7.7447e-07, No Iterations 2
ExecutionTime = 69.42 s  ClockTime = 83 s


SIMPLE solution converged in 639 iterations

End

